CauseWay DOS Extender v4.04 No copyright. Public domain software.
No rights retained. 

Exception: 0E, Error code: 0004

EAX=59392424 EBX=00000088 ECX=00000000 EDX=004DBE48 ESI=004DBE48 
EDI=004E3680 EBP=004E34A0 ESP=004D3F20 EIP=004378E4 EFL=00003210 

CS=01A7-FFBCB000 DS=01AF-FFBCB000 ES=01AF-FFBCB000 
FS=0000-xxxxxxxx GS=01B7-xxxxxxxx SS=01AF-FFBCB000 

CR0=00000000 CR2=00000000 CR3=00000000 TR=0000

Info flags=00008042 

Program Linear Load Address: 00435000

CS:EIP > 83 B8 28 0F 4A 00 00 74 22 FF B0 28 0F 4A 00 68 
         91 F2 49 00 6A FF 6A 74 6A 35 6A 20 FF 35 7C 0E 
         4A 00 56 E8 A9 BE 01 00 83 C4 20 8B 44 24 18 85 
         C0 74 0C 50 68 94 F2 49 00 6A FF 6A 74 EB 0A 50 
         68 94 F2 49 00 6A FF 6A 49 6A 53 6A 21 FF 35 58 
         52 4A 00 56 E8 78 BE 01 00 83 C4 20 83 3D 80 0F 
         4A 00 00 74 0B FF 0D 80 0F 4A 00 5D 5F 5E 5B C3 
         C7 05 84 0E 4A 00 FF FF FF FF 5D 5F 5E 5B C3 56 
         57 83 EC 08 89 E7 BE EA 76 43 00 A5 A5 FF 74 24 
         1C FF 74 24 1C E8 E6 84 00 00 83 C4 08 A3 74 0E 
         4A 00 85 C0 0F 84 EE 00 00 00 FF 74 24 20 FF 74 
         24 1C E8 C9 84 00 00 83 C4 08 A3 78 0E 4A 00 85 
         C0 75 1A FF 35 74 0E 4A 00 E8 80 89 00 00 83 C4 
         04 31 C0 A3 74 0E 4A 00 E9 B6 00 00 00 89 E0 50 
         6A 00 FF 74 24 20 E8 6B C1 01 00 83 C4 0C A3 7C 
         0E 4A 00 85 C0 75 2F FF 35 74 0E 4A 00 E8 4C 89 
         

SS:ESP > D0 98 4A 00 A0 30 4E 00 78 00 00 00 F0 CF 4D 00 
         EC 59 43 00 A0 34 4E 00 78 00 00 00 48 BE 4D 00 
         78 00 00 00 3C 00 00 00 01 00 00 00 01 00 00 00 
         01 00 00 00 01 00 00 00 06 00 00 00 D8 C5 4D 00 
         00 00 00 00 00 00 00 00 00 00 00 00 00 00 00 00 
         00 00 00 00 03 00 00 00 A8 D0 4F 00 78 34 4E 00 
         C8 C1 4D 00 A0 34 4E 00 00 00 00 00 A8 3F 4D 00 
         C4 A8 4A 00 B1 3F 4C 00 B0 3F 4D 00 85 1A 47 00 
         01 00 00 00 3C 40 4D 00 00 00 00 00 82 E5 44 00 
         00 00 00 00 00 00 00 00 00 00 00 00 00 00 00 00 
         00 00 00 00 00 00 00 00 00 00 00 00 00 00 00 00 
         00 00 00 00 00 00 00 00 00 00 00 00 00 00 00 00 
         00 00 00 00 00 00 00 00 00 00 00 00 00 00 00 00 
         00 00 00 00 00 00 00 00 00 00 00 00 00 00 00 00 
         00 40 4D 00 00 00 00 00 F4 0F 00 00 00 00 00 00 
         08 50 4D 00 28 40 4D 00 00 00 00 00 00 00 00 00 
         

         41 41 41 41 41 41 41 41 43 43 43 46 41 41 41 41 
         41 41 41 41 41 41 41 41 41 41 41 41 43 43 43 46 
         41 41 41 41 41 41 41 41 41 41 41 41 41 41 41 41 
         43 43 43 46 41 41 41 41 41 41 41 41 41 41 41 41 
         41 41 41 41 43 43 43 46 41 41 41 41 41 41 41 41 
         41 41 41 41 41 41 41 41 43 43 43 46 41 41 41 41 
         41 41 41 41 41 41 41 41 41 41 41 41 43 43 43 46 
         41 41 41 41 41 41 41 41 41 41 41 41 41 41 41 41 
         43 43 43 46 41 41 41 41 41 41 41 41 41 41 41 41 
         41 41 41 41 43 43 43 46 41 41 41 41 41 41 41 41 
         41 41 41 41 41 41 41 41 C8 39 54 00 11 00 00 00 
         2D 31 00 00 8C 35 4E 00 F8 21 52 00 19 00 00 00 
         39 2D 31 34 2D 32 30 32 32 2C 20 31 35 3A 34 31 
         00 31 00 00 19 00 00 00 B0 00 53 00 20 4C 41 50 
         00 04 00 00 80 D0 4F 00 C0 31 4E 00 11 00 00 00 
         F0 D3 4F 00 00 D8 4F 00 10 DC 4F 00 61 00 00 00 
SS:EBP > 78 00 00 00 3C 00 00 00 09 49 4E 56 5F 4C 49 53 
         54 00 00 00 02 00 00 00 09 49 4E 56 5F 4C 49 53 
         54 00 00 00 03 00 00 00 09 49 4E 56 5F 4C 49 53 
         54 00 00 00 00 00 00 00 09 49 4E 56 5F 4C 49 53 
         54 00 00 00 00 00 00 00 09 49 4E 56 5F 4C 49 53 
         54 00 00 00 00 00 00 00 B8 17 54 00 31 00 00 00 
         7A 3A 5C 68 6F 6D 65 5C 73 68 61 77 6E 5C 70 72 
         6F 6A 65 63 74 73 5C 6E 61 74 65 5C 69 6D 61 67 
         65 73 5C 56 45 4E 44 2E 62 6D 70 00 49 00 00 00 
         50 C2 4D 00 45 54 41 44 88 31 4E 00 45 4D 41 4E 
         00 35 4E 00 47 49 52 4F 70 31 4E 00 53 4F 50 58 
         98 31 4E 00 5A 49 53 58 10 32 4E 00 53 4F 50 59 
         D8 31 4E 00 5A 49 53 59 00 00 00 00 FF FF FF FF 
         4C 34 4E 00 19 00 00 00 38 2D 32 34 2D 32 30 32 
         32 2C 20 31 34 3A 33 35 00 44 54 00 11 00 00 00 
         2D 31 00 00 14 36 4E 00 00 32 4E 00 11 00 00 00 
         


   Application resource tracking details   
===========================================


Selectors
=========

 sel   base     limit  type D mem count
----------------------------------------
018F 00430000 00004000 DATA 32 Y xxxx
019F 00430AEC 0000013B DATA 32 Y xxxx
01A7 00000000 FFFFFFFF CODE 32 N 0001
01AF 00000000 FFFFFFFF DATA 32 N 0002
01B7 00430C64 00000047 DATA 32 Y xxxx

Total selectors: 0005


Linear memory blocks
====================

 handle    base    length 
--------------------------
00435000 00435000 0009F000 
00430AEC 00430AEC 0000013C 
00430C30 00430C30 00000014 
00430C64 00430C64 00000048 

Total Linear memory: 0009F198 (000A3000) in 00000004 blocks


Linear memory locked
====================

  base    length 
-----------------
0E900049 0000010F 
E5CC0044 0000000B 
004A2D6A 00000004 
004A2D62 00000004 
004A2D66 00000004 
004A359E 00000004 
004A35A2 00000004 
004A35A6 00000004 
004A2D6E 00000004 
004A2D72 00000004 
004A2D76 00000004 
004A2D7A 00000004 
004A2D7E 00000004 
004A2D82 00000004 
004B49F4 00000400 
004A35AA 00000004 
004D5038 00002000 
004D7040 00002000 
004D9048 00002000 
004DD038 00002000 
004DF040 00002000 
004E1048 00002000 
004E5038 00002000 
004E7040 00002000 
004E9048 00002000 
004B7384 00000004 
004B737C 00000004 
004B738C 00000004 
004B7388 00000004 
004B7380 00000004 
004B7390 00000004 
004B72E8 00000090 
004B72C8 00000020 
004B7378 00000004 
004A385A 00000004 
004A3862 00000004 
004A5938 00000004 
B9B00048 000000A0 
004A3830 00000004 
004A3850 00000004 
004B7180 00000140 
004A384C 00000004 
004B72C4 00000004 
004A3844 00000004 
004A3848 00000004 
004A3838 00000004 
004A383C 00000004 
004B72C0 00000004 
0044B2DA 0000000B 
0044B166 000000C2 
0044B3ED 00000021 
0044B40F 0000002C 
0044B440 00000024 
0044B465 0000007D 
0044B56D 0000001A 
0044B588 FFFFFFFF 
0044B598 0000001F 
0044B5B8 FFFFFFFF 
0044B653 00000011 
0044B665 FFFFFFFF 
004A6DE8 00000034 
004C22AC 00000004 
004C22B8 00000004 
004A6DAC 00000004 
004A6DB0 00000004 
004C22B0 00000004 
004C22B4 00000004 
00470C83 00000196 
0044C0A0 FFFFFFFF 
004A98C4 00000004 
0043501D 0000000C 
004A27F8 00000004 
004A2800 00000004 
004B4973 0000007F 
004B48F4 0000007F 
004A280C 00000004 
004A2810 00000004 
004B465C 0000014C 
004B47A8 0000014C 
004A2804 00000004 
004A2808 00000004 
004A2814 00000004 
004A2818 00000004 
004A281C 00000004 
004A2828 00000004 
004A282C 00000004 
004A2830 00000004 
004A2834 00000004 
004A2838 00000004 
00447716 00000098 
0044781D 0000003B 
00447664 0000001F 
004A8A1C 00000080 
004A8A9C 00000080 
004A8B1C 00000018 
004A8B34 0000000A 
004A8B3E 000000FE 
004A8C3C 000000FE 
004A8D3A 000000FE 
004A8E38 000000FE 
004C330A 000000FE 
004C3408 000000FE 
004C3506 000000FE 
004C3800 000000FE 
004C3604 000000FE 
004C3702 000000FE 
004C2A1C 000000FE 
004C2C18 000000FE 
004C2F12 000000FE 
004C2E14 000000FE 
004C3010 000000FE 
004C2B1A 000000FE 
004C320C 000000FE 
004C2D16 000000FE 
004C310E 000000FE 
004A8F36 00000004 
004A8F3A 00000004 
004A8F3E 00000004 
004A8F42 00000004 
004A8F46 00000004 
004A8F4A 00000004 
004A8F4E 00000004 
004A8F52 00000004 
004A8F56 00000004 
004A8F5A 00000004 
004A8F5E 00000004 
004A8F62 00000004 
004A8F66 00000004 
004A8F6A 00000004 
004A8A14 00000004 
004A89E0 00000004 
004A89E4 00000004 
004A89E8 00000004 
004A89EC 00000004 
004A89F0 00000004 
004A89F4 00000004 
004A89F8 00000004 
004A89FC 00000004 
004A8A00 00000004 
004A8A04 00000004 
004A8A08 00000004 
004A8A0C 00000004 
004A8A10 00000004 
0047D7BE 000003D2 
004A6860 00000004 
004A6864 00000004 
004A6868 00000004 
0046DDC0 00000043 
0046DF0D 00000046 
0044C0A0 FFFFFFFF 
00491744 0000000C 
00444FFA 000001F4 
004A1170 000000F4 
00491E94 00000304 
004930BC 0000023C 
004D4C20 00000360 
004DB050 00000320 
004B8794 000000F4 
004A109C 0000008C 
004A27BC 00000004 
004A27C0 00000004 
004B4648 00000004 
004B464C 00000004 
004A27C4 00000004 
004A27C8 00000004 
004A27D8 00000004 
004A27CC 00000004 
004A27D0 00000004 
004A27D4 00000004 
004B4654 00000004 
004B4658 00000004 
004B4644 00000004 
004B4650 00000004 
004A27E0 00000004 
004B4640 00000004 
004B4638 00000004 
004B4634 00000004 
004B44B0 00000180 
004ABF30 00000400 
004AC330 00008180 
004AB430 00000300 
004AB730 00000800 
004A27E4 00000004 
004A27E8 00000004 
004A27EC 00000004 
004B463C 00000004 
004B4630 00000004 
004456AA 00000032 
00445700 00000E06 
0044580C 00000CFA 
00445951 0000008C 
00445ACA 000000B3 
00445C6E 0000005A 
00445CFE 00000037 
00445D36 00000055 
00445E21 00000160 
00445FF6 00000070 
00446093 FFFFFFD3 
00446162 000000AF 
00446319 FFFFFEF8 
004469F1 000000E5 
00446AF5 0000007F 
00446826 000003B2 
00446BD9 0000000B 
00446C0E 0000001E 
00446C2D 00000029 
004A36B8 000000B8 
004A3770 00000060 
004A37D0 00000004 
004A37D4 00000004 
004A37E0 00000004 
004A37E4 00000004 
004A37F0 00000004 
004A37F4 00000004 
004B51F4 00001400 
004B65F4 00000B00 
004A3808 00000004 
004A380C 00000004 
004A3810 00000004 
004A3814 00000004 
00448539 0000001F 
00449D91 0000001F 
00449E18 00000024 
00449E8D 00000022 
0044A0ED 000000C1 
0044A1B6 00000022 
0044A211 000000A3 
0044A2E9 00000020 
0044A319 0000001D 
0044A337 0000000F 
0044A347 00000041 
0044A389 00000022 
0044A3AC 00000011 
0044A3D2 00000015 
0044A42C 00000018 
0044A4A2 0000002E 
0044A4FF 00000083 
0044A59B 00000028 
0044A5CD 00000022 
0044A5F0 00000014 
0044A639 00000069 
0044A6C5 00000028 
0044A6F7 00000038 
0044A730 0000002A 
0044A78C 0000007E 
0044A826 0000002B 
0044A85E 00000022 
0044A898 00000022 
0044A8D2 00000022 
0044A90C FFFFFFE8 
0044ABBB 0000001F 
004A1364 000000B8 
004A141C 000000B8 
004A14D4 000000B8 
004A158C 000000B8 
004A1644 000000B8 
004A17FC 00000060 
004A3818 00000004 
004A3824 00000004 
004A3828 00000004 
004A382C 00000004 
004A1874 00000004 
004A185C 00000004 
004A1864 00000004 
004A1868 00000004 
004A186C 00000004 
004A1870 00000004 
004A1878 00000004 
004A1884 00000004 
004A1888 00000004 
004A188C 00000004 
004A9934 00000008 
004A993C 00000008 
004A1898 00000004 
004A189C 00000004 
004A1890 00000004 
004A1894 00000004 
004A1864 00000004 
00439263 0000008D 
00439463 0000012D 
0043A313 0000001E 
0043A36B 00000035 
0043A3AA 0000000F 
00439329 00000090 
00466C75 00000023 
004A6460 00000080 
004669FB 0000003F 
00466A52 000000C3 
00466B1E 00000015 
00466B34 0000005C 
004DB630 00000800 
004C10CC 00000B00 
004A6458 00000004 
004B90CC 00008000 
004C1BDC 00000004 
004C1BD4 00000004 
004C1BD8 00000004 
004C1BD0 00000004 
004C1BCC 00000004 
00462A12 00000022 
00462A35 00000005 
00462A53 00000005 
00462A3B 00000005 
00462A41 00000005 
00462A47 00000005 
00462A4D 00000005 
00462A76 00000028 
00462EE1 0000008D 
0046300E FFFFFF60 
0046320E FFFFFD60 
00463411 FFFFFB5D 
00463638 FFFFF936 
00463867 FFFFF707 
00463A85 FFFFF4E9 
00463CB1 FFFFF2BD 
00463EF2 FFFFF07C 
0046413C FFFFEE32 
0046434A FFFFEC24 
00464572 FFFFE9FC 
004647B3 FFFFE7BB 
00464A01 00000478 
00464E7A 000005BB 
00465436 00000481 
004658B8 000005F1 
00462C7D 00000072 
00462D42 000000C3 
00462E48 00000060 
00465EAA 00000274 
004661C9 00000090 
0046625A 00000013 
0046626E 00000024 
0046629D 0000000D 
004662AB 0000001B 
004662C7 00000027 
004662EF 00000020 
0046631E 0000000E 
0046632D 0000001B 
00466349 00000059 
004663AA 0000000D 
004663B8 0000000E 
004662AB 0000011B 
004663C7 00000059 
00466428 0000000D 
00466436 0000000E 
0046632D 00000117 
00466445 00000059 
004664A6 0000000D 
004664B3 00000000 
004664B3 00000000 
004664B3 00000000 
0044C0A0 FFFFFFFF 
004A19CC 00000060 
004A1A2C 00000060 
004A1A8C 00000060 
004A1AEC 00000700 
004A21EC 00000292 
004A247E 00000004 
004A248E 00000048 
004A24D6 00000034 
004A250A 00000200 
004A270A 00000014 
004A271E 00000014 
004A2732 00000014 
004A9A10 00000014 
004A99FC 00000014 
004A99E8 00000014 
004A99D4 00000014 
004A9A24 00000014 
004A9A6E 00000001 
004A2482 00000004 
004A9A5C 00000012 
004A9A4A 00000012 
004A9A38 00000012 
004A998C 00000048 
004A9944 00000048 
004A2486 00000004 
004A248A 00000004 
0043A77C 0000004C 
0043A7CF 000001C4 
0043A994 000000A0 
0043AECA 00000033 
0043B021 0000002A 
0043B053 0000005E 
0043B0D5 000000A7 
0043B18D 000000B8 
004A1170 000000F4 
00491E94 00000304 
004930BC 0000023C 
004A1170 000000F4 
00491E94 00000304 
004930BC 0000023C 
004A1170 000000F4 
00491E94 00000304 
004930BC 0000023C 
004A1170 000000F4 
00491E94 00000304 
004930BC 0000023C 
004A1170 000000F4 
00491E94 00000304 
004930BC 0000023C 
004A1170 000000F4 
00491E94 00000304 
004930BC 0000023C 
004A1170 000000F4 
00491E94 00000304 
004930BC 0000023C 
004A1170 000000F4 
00491E94 00000304 
004930BC 0000023C 
004A1170 000000F4 
00491E94 00000304 
004930BC 0000023C 
004A1170 000000F4 
00491E94 00000304 
004930BC 0000023C 
004A1170 000000F4 
00491E94 00000304 
004930BC 0000023C 
004A1170 000000F4 
00491E94 00000304 
004930BC 0000023C 
004A1170 000000F4 
00491E94 00000304 
004930BC 0000023C 
004A1170 000000F4 
00491E94 00000304 
004930BC 0000023C 
004A1170 000000F4 
00491E94 00000304 
004930BC 0000023C 
004A1170 000000F4 
00491E94 00000304 
004930BC 0000023C 
004A1170 000000F4 
00491E94 00000304 
004930BC 0000023C 
004A1170 000000F4 
00491E94 00000304 
004930BC 0000023C 
004A1170 000000F4 
00491E94 00000304 
004930BC 0000023C 
004A1170 000000F4 
00491E94 00000304 
004930BC 0000023C 
004A1170 000000F4 
00491E94 00000304 
004930BC 0000023C 
004A1170 000000F4 
00491E94 00000304 
004930BC 0000023C 
004A1170 000000F4 
00491E94 00000304 
004930BC 0000023C 
004A1170 000000F4 
00491E94 00000304 
004930BC 0000023C 
004A1170 000000F4 
00491E94 00000304 
004930BC 0000023C 
004A1170 000000F4 
00491E94 00000304 
004930BC 0000023C 
004A1170 000000F4 
00491E94 00000304 
004930BC 0000023C 
004A1170 000000F4 
00491E94 00000304 
004930BC 0000023C 
004A1170 000000F4 
00491E94 00000304 
004930BC 0000023C 
004A1170 000000F4 
00491E94 00000304 
004930BC 0000023C 
004A1170 000000F4 
00491E94 00000304 
004930BC 0000023C 
004A1170 000000F4 
00491E94 00000304 
004930BC 0000023C 
004A1170 000000F4 
00491E94 00000304 
004930BC 0000023C 
004A1170 000000F4 
00491E94 00000304 
004930BC 0000023C 
004A1170 000000F4 
00491E94 00000304 
004930BC 0000023C 
004A1170 000000F4 
00491E94 00000304 
004930BC 0000023C 
004A1170 000000F4 
00491E94 00000304 
004930BC 0000023C 
004A1170 000000F4 
00491E94 00000304 
004930BC 0000023C 
004A1170 000000F4 
00491E94 00000304 
004930BC 0000023C 
004A1170 000000F4 
00491E94 00000304 
004930BC 0000023C 
004A1170 000000F4 
00491E94 00000304 
004930BC 0000023C 
004A1170 000000F4 
00491E94 00000304 
004930BC 0000023C 
004A1170 000000F4 
00491E94 00000304 
004930BC 0000023C 
004A1170 000000F4 
00491E94 00000304 
004930BC 0000023C 
004A1170 000000F4 
00491E94 00000304 
004930BC 0000023C 
004A1170 000000F4 
00491E94 00000304 
004930BC 0000023C 
004A1170 000000F4 
00491E94 00000304 
004930BC 0000023C 
004A1170 000000F4 
00491E94 00000304 
004930BC 0000023C 
004A1170 000000F4 
00491E94 00000304 
004930BC 0000023C 
004A1170 000000F4 
00491E94 00000304 
004930BC 0000023C 
004A1170 000000F4 
00491E94 00000304 
004930BC 0000023C 
004A1170 000000F4 
00491E94 00000304 
004930BC 0000023C 
004A1170 000000F4 
00491E94 00000304 
004930BC 0000023C 
004A1170 000000F4 
00491E94 00000304 
004930BC 0000023C 
004A1170 000000F4 
00491E94 00000304 
004930BC 0000023C 
004A1170 000000F4 
00491E94 00000304 
004930BC 0000023C 
004A1170 000000F4 
00491E94 00000304 
004930BC 0000023C 
004A1170 000000F4 
00491E94 00000304 
004930BC 0000023C 
004A1170 000000F4 
00491E94 00000304 
004930BC 0000023C 
004A1170 000000F4 
00491E94 00000304 
004930BC 0000023C 
004A1170 000000F4 
00491E94 00000304 
004930BC 0000023C 
004A1170 000000F4 
00491E94 00000304 
004930BC 0000023C 
004A1170 000000F4 
00491E94 00000304 
004930BC 0000023C 
004A1170 000000F4 
00491E94 00000304 
004930BC 0000023C 
004A1170 000000F4 
00491E94 00000304 
004930BC 0000023C 
004A1170 000000F4 
00491E94 00000304 
004930BC 0000023C 
004A1170 000000F4 
00491E94 00000304 
004930BC 0000023C 
004A1170 000000F4 
00491E94 00000304 
004930BC 0000023C 
004A1170 000000F4 
00491E94 00000304 
004930BC 0000023C 
004A1170 000000F4 
00491E94 00000304 
004930BC 0000023C 
004A1170 000000F4 
00491E94 00000304 
004930BC 0000023C 
004A1170 000000F4 
00491E94 00000304 
004930BC 0000023C 
004A1170 000000F4 
00491E94 00000304 
004930BC 0000023C 
004A1170 000000F4 
00491E94 00000304 
004930BC 0000023C 
004A1170 000000F4 
00491E94 00000304 
004930BC 0000023C 
004A1170 000000F4 
00491E94 00000304 
004930BC 0000023C 
004A1170 000000F4 
00491E94 00000304 
004930BC 0000023C 
004A1170 000000F4 
00491E94 00000304 
004930BC 0000023C 
004A1170 000000F4 
00491E94 00000304 
004930BC 0000023C 
004A1170 000000F4 
00491E94 00000304 
004930BC 0000023C 
004A1170 000000F4 
00491E94 00000304 
004930BC 0000023C 
004A1170 000000F4 
00491E94 00000304 
004930BC 0000023C 
004A1170 000000F4 
00491E94 00000304 
004930BC 0000023C 
004A1170 000000F4 
00491E94 00000304 
004930BC 0000023C 
004A1170 000000F4 
00491E94 00000304 
004930BC 0000023C 
004A1170 000000F4 
00491E94 00000304 
004930BC 0000023C 
004A1170 000000F4 
00491E94 00000304 
004930BC 0000023C 
004A1170 000000F4 
00491E94 00000304 
004930BC 0000023C 
004A1170 000000F4 
00491E94 00000304 
004930BC 0000023C 
004A1170 000000F4 
00491E94 00000304 
004930BC 0000023C 
004A1170 000000F4 
00491E94 00000304 
004930BC 0000023C 
004A1170 000000F4 
00491E94 00000304 
004930BC 0000023C 
004A1170 000000F4 
00491E94 00000304 
004930BC 0000023C 
004A1170 000000F4 
00491E94 00000304 
004930BC 0000023C 
004A1170 000000F4 
00491E94 00000304 
004930BC 0000023C 
004A1170 000000F4 
00491E94 00000304 
004930BC 0000023C 
004A1170 000000F4 
00491E94 00000304 
004930BC 0000023C 
004A1170 000000F4 
00491E94 00000304 
004930BC 0000023C 
004A1170 000000F4 
00491E94 00000304 
004930BC 0000023C 
004A1170 000000F4 
00491E94 00000304 
004930BC 0000023C 
004A1170 000000F4 
00491E94 00000304 
004930BC 0000023C 
004A1170 000000F4 
00491E94 00000304 
004930BC 0000023C 
004A1170 000000F4 
00491E94 00000304 
004930BC 0000023C 
004A1170 000000F4 
00491E94 00000304 
004930BC 0000023C 
004A1170 000000F4 
00491E94 00000304 
004930BC 0000023C 
004A1170 000000F4 
00491E94 00000304 
004930BC 0000023C 
004A1170 000000F4 
00491E94 00000304 
004930BC 0000023C 
004A1170 000000F4 
00491E94 00000304 
004930BC 0000023C 
004A1170 000000F4 
00491E94 00000304 
004930BC 0000023C 
004A1170 000000F4 
00491E94 00000304 
004930BC 0000023C 
004A1170 000000F4 
00491E94 00000304 
004930BC 0000023C 
004A1170 000000F4 
00491E94 00000304 
004930BC 0000023C 
004A1170 000000F4 
00491E94 00000304 
004930BC 0000023C 
004A1170 000000F4 
00491E94 00000304 
004930BC 0000023C 
004A1170 000000F4 
00491E94 00000304 
004930BC 0000023C 
004A1170 000000F4 
00491E94 00000304 
004930BC 0000023C 
004A1170 000000F4 
00491E94 00000304 
004930BC 0000023C 
004A1170 000000F4 
00491E94 00000304 
004930BC 0000023C 
004A1170 000000F4 
00491E94 00000304 
004930BC 0000023C 
004A1170 000000F4 
00491E94 00000304 
004930BC 0000023C 
004A1170 000000F4 
00491E94 00000304 
004930BC 0000023C 
004A1170 000000F4 
00491E94 00000304 
004930BC 0000023C 
004A1170 000000F4 
00491E94 00000304 
004930BC 0000023C 
004A1170 000000F4 
00491E94 00000304 
004930BC 0000023C 
004A1170 000000F4 
00491E94 00000304 
004930BC 0000023C 
004A1170 000000F4 
00491E94 00000304 
004930BC 0000023C 
004A1170 000000F4 
00491E94 00000304 
004930BC 0000023C 
004A1170 000000F4 
00491E94 00000304 
004930BC 0000023C 
004A1170 000000F4 
00491E94 00000304 
004930BC 0000023C 
004A1170 000000F4 
00491E94 00000304 
004930BC 0000023C 
004A1170 000000F4 
00491E94 00000304 
004930BC 0000023C 
004A1170 000000F4 
00491E94 00000304 
004930BC 0000023C 
004A1170 000000F4 
00491E94 00000304 
004930BC 0000023C 
004A1170 000000F4 
00491E94 00000304 
004930BC 0000023C 
004A1170 000000F4 
00491E94 00000304 
004930BC 0000023C 
004A1170 000000F4 
00491E94 00000304 
004930BC 0000023C 
004A1170 000000F4 
00491E94 00000304 
004930BC 0000023C 
004A1170 000000F4 
00491E94 00000304 
004930BC 0000023C 
004A1170 000000F4 
00491E94 00000304 
004930BC 0000023C 
004A1170 000000F4 
00491E94 00000304 
004930BC 0000023C 
004A1170 000000F4 
00491E94 00000304 
004930BC 0000023C 
004A1170 000000F4 
00491E94 00000304 
004930BC 0000023C 
004A1170 000000F4 
00491E94 00000304 
004930BC 0000023C 
004A1170 000000F4 
00491E94 00000304 
004930BC 0000023C 
004A1170 000000F4 
00491E94 00000304 
004930BC 0000023C 
004A1170 000000F4 
00491E94 00000304 
004930BC 0000023C 
004A1170 000000F4 
00491E94 00000304 
004930BC 0000023C 
004A1170 000000F4 
00491E94 00000304 
004930BC 0000023C 
004A1170 000000F4 
00491E94 00000304 
004930BC 0000023C 
004A1170 000000F4 
00491E94 00000304 
004930BC 0000023C 
004A1170 000000F4 
00491E94 00000304 
004930BC 0000023C 
004A1170 000000F4 
00491E94 00000304 
004930BC 0000023C 
004A1170 000000F4 
00491E94 00000304 
004930BC 0000023C 
004A1170 000000F4 
00491E94 00000304 
004930BC 0000023C 
004A1170 000000F4 
00491E94 00000304 
004930BC 0000023C 
004A1170 000000F4 
00491E94 00000304 
004930BC 0000023C 
004A1170 000000F4 
00491E94 00000304 
004930BC 0000023C 
004A1170 000000F4 
00491E94 00000304 
004930BC 0000023C 
004A1170 000000F4 
00491E94 00000304 
004930BC 0000023C 
004A1170 000000F4 
00491E94 00000304 
004930BC 0000023C 
004A1170 000000F4 
00491E94 00000304 
004930BC 0000023C 
004A1170 000000F4 
00491E94 00000304 
004930BC 0000023C 
004A1170 000000F4 
00491E94 00000304 
004930BC 0000023C 
004A1170 000000F4 
00491E94 00000304 
004930BC 0000023C 
004A1170 000000F4 
00491E94 00000304 
004930BC 0000023C 
004A1170 000000F4 
00491E94 00000304 
004930BC 0000023C 
004A1170 000000F4 
00491E94 00000304 
004930BC 0000023C 
004A1170 000000F4 
00491E94 00000304 
004930BC 0000023C 
004A1170 000000F4 
00491E94 00000304 
004930BC 0000023C 
004A1170 000000F4 
00491E94 00000304 
004930BC 0000023C 
004A1170 000000F4 
00491E94 00000304 
004930BC 0000023C 
004A1170 000000F4 
00491E94 00000304 
004930BC 0000023C 
004A1170 000000F4 
00491E94 00000304 
004930BC 0000023C 
004A1170 000000F4 
00491E94 00000304 
004930BC 0000023C 
004A1170 000000F4 
00491E94 00000304 
004930BC 0000023C 
004A1170 000000F4 
00491E94 00000304 
004930BC 0000023C 
004A1170 000000F4 
00491E94 00000304 
004930BC 0000023C 
004A1170 000000F4 
00491E94 00000304 
004930BC 0000023C 
004A1170 000000F4 
00491E94 00000304 
004930BC 0000023C 
004A1170 000000F4 
00491E94 00000304 
004930BC 0000023C 
004A1170 000000F4 
00491E94 00000304 
004930BC 0000023C 
004A1170 000000F4 
00491E94 00000304 
004930BC 0000023C 
004A1170 000000F4 
00491E94 00000304 
004930BC 0000023C 
004A1170 000000F4 
00491E94 00000304 
004930BC 0000023C 
004A1170 000000F4 
00491E94 00000304 
004930BC 0000023C 
004A1170 000000F4 
00491E94 00000304 
004930BC 0000023C 
004A1170 000000F4 
00491E94 00000304 
004930BC 0000023C 
004A1170 000000F4 
00491E94 00000304 
004930BC 0000023C 
004A1170 000000F4 
00491E94 00000304 
004930BC 0000023C 
004A1170 000000F4 
00491E94 00000304 
004930BC 0000023C 
004A1170 000000F4 
00491E94 00000304 
004930BC 0000023C 
004A1170 000000F4 
00491E94 00000304 
004930BC 0000023C 
004A1170 000000F4 
00491E94 00000304 
004930BC 0000023C 
004A1170 000000F4 
00491E94 00000304 
004930BC 0000023C 
004A1170 000000F4 
00491E94 00000304 
004930BC 0000023C 
004A1170 000000F4 
00491E94 00000304 
004930BC 0000023C 
004A1170 000000F4 
00491E94 00000304 
004930BC 0000023C 
004A1170 000000F4 
00491E94 00000304 
004930BC 0000023C 
004A1170 000000F4 
00491E94 00000304 
004930BC 0000023C 
004A1170 000000F4 
00491E94 00000304 
004930BC 0000023C 
004A1170 000000F4 
00491E94 00000304 
004930BC 0000023C 
004A1170 000000F4 
00491E94 00000304 
004930BC 0000023C 
004A1170 000000F4 
00491E94 00000304 
004930BC 0000023C 
004A1170 000000F4 
00491E94 00000304 
004930BC 0000023C 
004A1170 000000F4 
00491E94 00000304 
004930BC 0000023C 
004A1170 000000F4 
00491E94 00000304 
004930BC 0000023C 
004A1170 000000F4 
00491E94 00000304 
004930BC 0000023C 
004A1170 000000F4 
00491E94 00000304 
004930BC 0000023C 
004A1170 000000F4 
00491E94 00000304 
004930BC 0000023C 
004A1170 000000F4 
00491E94 00000304 
004930BC 0000023C 
004A1170 000000F4 
00491E94 00000304 
004930BC 0000023C 
004A1170 000000F4 
00491E94 00000304 
004930BC 0000023C 
004A1170 000000F4 
00491E94 00000304 
004930BC 0000023C 
004A1170 000000F4 
00491E94 00000304 
004930BC 0000023C 
004A1170 000000F4 
00491E94 00000304 
004930BC 0000023C 
004A1170 000000F4 
00491E94 00000304 
004930BC 0000023C 
004A1170 000000F4 
00491E94 00000304 
004930BC 0000023C 
004A1170 000000F4 
00491E94 00000304 
004930BC 0000023C 
004A1170 000000F4 
00491E94 00000304 
004930BC 0000023C 
004A1170 000000F4 
00491E94 00000304 
004930BC 0000023C 
004A1170 000000F4 
00491E94 00000304 
004930BC 0000023C 
004A1170 000000F4 
00491E94 00000304 
004930BC 0000023C 
004A1170 000000F4 
00491E94 00000304 
004930BC 0000023C 
004A1170 000000F4 
00491E94 00000304 
004930BC 0000023C 
004A1170 000000F4 
00491E94 00000304 
004930BC 0000023C 
004A1170 000000F4 
00491E94 00000304 
004930BC 0000023C 
004A1170 000000F4 
00491E94 00000304 
004930BC 0000023C 
004A1170 000000F4 
00491E94 00000304 
004930BC 0000023C 
004E3078 00000024 
0050F038 00010C4A 
004A1170 000000F4 
00491E94 00000304 
004930BC 0000023C 
004A1170 000000F4 
00491E94 00000304 
004930BC 0000023C 
004A1170 000000F4 
00491E94 00000304 
004A1170 000000F4 
00491E94 00000304 
004930BC 0000023C 
004930BC 0000023C 
004A1170 000000F4 
00491E94 00000304 
004930BC 0000023C 
004A1170 000000F4 
00491E94 00000304 
004930BC 0000023C 
004A1170 000000F4 
00491E94 00000304 
004930BC 0000023C 
004A1170 000000F4 
00491E94 00000304 
004930BC 0000023C 
004A1170 000000F4 
00491E94 00000304 
004930BC 0000023C 
004A1170 000000F4 
00491E94 00000304 
004930BC 0000023C 
004A1170 000000F4 
00491E94 00000304 
004930BC 0000023C 
004A1170 000000F4 
00491E94 00000304 
004930BC 0000023C 
004A1170 000000F4 
00491E94 00000304 
004930BC 0000023C 
004A1170 000000F4 
00491E94 00000304 
004930BC 0000023C 
004A1170 000000F4 
00491E94 00000304 
004930BC 0000023C 
004A1170 000000F4 
00491E94 00000304 
004930BC 0000023C 
004A1170 000000F4 
00491E94 00000304 
004930BC 0000023C 
004A1170 000000F4 
00491E94 00000304 
004930BC 0000023C 
004A1170 000000F4 
00491E94 00000304 
004930BC 0000023C 
004A1170 000000F4 
00491E94 00000304 
004930BC 0000023C 
004A1170 000000F4 
00491E94 00000304 
004930BC 0000023C 
004A1170 000000F4 
00491E94 00000304 
004930BC 0000023C 
004A1170 000000F4 
00491E94 00000304 
004930BC 0000023C 
004A1170 000000F4 
00491E94 00000304 
004930BC 0000023C 
004A1170 000000F4 
00491E94 00000304 
004930BC 0000023C 
004A1170 000000F4 
00491E94 00000304 
004930BC 0000023C 
004A1170 000000F4 
00491E94 00000304 
004930BC 0000023C 
004A1170 000000F4 
00491E94 00000304 
004930BC 0000023C 
004A1170 000000F4 
00491E94 00000304 
004930BC 0000023C 
004A1170 000000F4 
00491E94 00000304 
004930BC 0000023C 
004A1170 000000F4 
00491E94 00000304 
004930BC 0000023C 
004A1170 000000F4 
00491E94 00000304 
004930BC 0000023C 
004A1170 000000F4 
00491E94 00000304 
004930BC 0000023C 
004A1170 000000F4 
00491E94 00000304 
004930BC 0000023C 
004A1170 000000F4 
00491E94 00000304 
004930BC 0000023C 
004A1170 000000F4 
00491E94 00000304 
004930BC 0000023C 
004A1170 000000F4 
00491E94 00000304 
004930BC 0000023C 
004A1170 000000F4 
00491E94 00000304 
004930BC 0000023C 
004A1170 000000F4 
00491E94 00000304 
004930BC 0000023C 
004A1170 000000F4 
00491E94 00000304 
004930BC 0000023C 
004A1170 000000F4 
00491E94 00000304 
004930BC 0000023C 
004A1170 000000F4 
00491E94 00000304 
004930BC 0000023C 
004A1170 000000F4 
00491E94 00000304 
004930BC 0000023C 
004A1170 000000F4 
00491E94 00000304 
004930BC 0000023C 
004A1170 000000F4 
00491E94 00000304 
004930BC 0000023C 
004A1170 000000F4 
00491E94 00000304 
004930BC 0000023C 
004A1170 000000F4 
00491E94 00000304 
004930BC 0000023C 
004A1170 000000F4 
00491E94 00000304 
004930BC 0000023C 
004A1170 000000F4 
00491E94 00000304 
004930BC 0000023C 
004A1170 000000F4 
00491E94 00000304 
004930BC 0000023C 
004A1170 000000F4 
00491E94 00000304 
004930BC 0000023C 
004A1170 000000F4 
00491E94 00000304 
004930BC 0000023C 
004A1170 000000F4 
00491E94 00000304 
004930BC 0000023C 
004A1170 000000F4 
00491E94 00000304 
004930BC 0000023C 
004A1170 000000F4 
00491E94 00000304 
004930BC 0000023C 
004A1170 000000F4 
00491E94 00000304 
004930BC 0000023C 
004A1170 000000F4 
00491E94 00000304 
004930BC 0000023C 
004A1170 000000F4 
00491E94 00000304 
004930BC 0000023C 
004A1170 000000F4 
00491E94 00000304 
004930BC 0000023C 
004A1170 000000F4 
00491E94 00000304 
004930BC 0000023C 
004A1170 000000F4 
00491E94 00000304 
004930BC 0000023C 
004A1170 000000F4 
00491E94 00000304 
004930BC 0000023C 
004A1170 000000F4 
00491E94 00000304 
004930BC 0000023C 
004A1170 000000F4 
00491E94 00000304 
004930BC 0000023C 
004A1170 000000F4 
00491E94 00000304 
004930BC 0000023C 
004A1170 000000F4 
00491E94 00000304 
004930BC 0000023C 
004A1170 000000F4 
00491E94 00000304 
004930BC 0000023C 
004A1170 000000F4 
00491E94 00000304 
004930BC 0000023C 
004A1170 000000F4 
00491E94 00000304 
004930BC 0000023C 
004A1170 000000F4 
00491E94 00000304 
004930BC 0000023C 
004A1170 000000F4 
00491E94 00000304 
004930BC 0000023C 
004A1170 000000F4 
00491E94 00000304 
004930BC 0000023C 
004A1170 000000F4 
00491E94 00000304 
004930BC 0000023C 
004A1170 000000F4 
00491E94 00000304 
004930BC 0000023C 
004A1170 000000F4 
00491E94 00000304 
004930BC 0000023C 
004A1170 000000F4 
00491E94 00000304 
004930BC 0000023C 
004A1170 000000F4 
00491E94 00000304 
004930BC 0000023C 
004A1170 000000F4 
00491E94 00000304 
004930BC 0000023C 
004A1170 000000F4 
00491E94 00000304 
004930BC 0000023C 
004A1170 000000F4 
00491E94 00000304 
004930BC 0000023C 
004A1170 000000F4 
00491E94 00000304 
004930BC 0000023C 
004A1170 000000F4 
00491E94 00000304 
004930BC 0000023C 
004A1170 000000F4 
00491E94 00000304 
004930BC 0000023C 
004A1170 000000F4 
00491E94 00000304 
004930BC 0000023C 
004A1170 000000F4 
00491E94 00000304 
004930BC 0000023C 
004A1170 000000F4 
00491E94 00000304 
004930BC 0000023C 
004A1170 000000F4 
00491E94 00000304 
004930BC 0000023C 
004A1170 000000F4 
00491E94 00000304 
004930BC 0000023C 
004A1170 000000F4 
00491E94 00000304 
004930BC 0000023C 
004A1170 000000F4 
00491E94 00000304 
004930BC 0000023C 
004A1170 000000F4 
00491E94 00000304 
004930BC 0000023C 
004A1170 000000F4 
00491E94 00000304 
004930BC 0000023C 
004A1170 000000F4 
00491E94 00000304 
004930BC 0000023C 
004A1170 000000F4 
00491E94 00000304 
004930BC 0000023C 
004A1170 000000F4 
00491E94 00000304 
004930BC 0000023C 
004A1170 000000F4 
00491E94 00000304 
004930BC 0000023C 
004A1170 000000F4 
00491E94 00000304 
004930BC 0000023C 
004A1170 000000F4 
00491E94 00000304 
004930BC 0000023C 
004A1170 000000F4 
00491E94 00000304 
004930BC 0000023C 
004A1170 000000F4 
00491E94 00000304 
004930BC 0000023C 
004A1170 000000F4 
00491E94 00000304 
004930BC 0000023C 
004A1170 000000F4 
00491E94 00000304 
004930BC 0000023C 
004A1170 000000F4 
00491E94 00000304 
004930BC 0000023C 
004A1170 000000F4 
00491E94 00000304 
004A1170 000000F4 
00491E94 00000304 
004930BC 0000023C 
004A1170 000000F4 
00491E94 00000304 
004930BC 0000023C 
004A1170 000000F4 
00491E94 00000304 
004930BC 0000023C 
004A1170 000000F4 
00491E94 00000304 
004930BC 0000023C 
004A1170 000000F4 
00491E94 00000304 
004930BC 0000023C 
004A1170 000000F4 
00491E94 00000304 
004930BC 0000023C 
004A1170 000000F4 
00491E94 00000304 
004930BC 0000023C 
004A1170 000000F4 
00491E94 00000304 
004930BC 0000023C 
004A1170 000000F4 
00491E94 00000304 
004930BC 0000023C 
004A1170 000000F4 
00491E94 00000304 
004930BC 0000023C 
004A1170 000000F4 
00491E94 00000304 
004930BC 0000023C 
004A1170 000000F4 
00491E94 00000304 
004930BC 0000023C 
004A1170 000000F4 
00491E94 00000304 
004930BC 0000023C 
004A1170 000000F4 
00491E94 00000304 
004930BC 0000023C 
004A1170 000000F4 
00491E94 00000304 
004930BC 0000023C 
004A1170 000000F4 
00491E94 00000304 
004930BC 0000023C 
004A1170 000000F4 
00491E94 00000304 
004930BC 0000023C 
004A1170 000000F4 
00491E94 00000304 
004930BC 0000023C 
004A1170 000000F4 
00491E94 00000304 
004930BC 0000023C 
004A1170 000000F4 
00491E94 00000304 
004930BC 0000023C 
004A1170 000000F4 
00491E94 00000304 
004930BC 0000023C 
004A1170 000000F4 
00491E94 00000304 
004930BC 0000023C 
004A1170 000000F4 
00491E94 00000304 
004930BC 0000023C 
004A1170 000000F4 
00491E94 00000304 
004930BC 0000023C 
004A1170 000000F4 
00491E94 00000304 
004930BC 0000023C 
004A1170 000000F4 
00491E94 00000304 
004930BC 0000023C 
004A1170 000000F4 
00491E94 00000304 
004930BC 0000023C 
004A1170 000000F4 
00491E94 00000304 
004930BC 0000023C 
004A1170 000000F4 
00491E94 00000304 
004930BC 0000023C 
004A1170 000000F4 
00491E94 00000304 
004930BC 0000023C 
004A1170 000000F4 
00491E94 00000304 
004930BC 0000023C 
004A1170 000000F4 
00491E94 00000304 
004930BC 0000023C 
004A1170 000000F4 
00491E94 00000304 
004930BC 0000023C 
004A1170 000000F4 
00491E94 00000304 
004930BC 0000023C 
004A1170 000000F4 
00491E94 00000304 
004930BC 0000023C 
004A1170 000000F4 
00491E94 00000304 
004930BC 0000023C 
004A1170 000000F4 
00491E94 00000304 
004930BC 0000023C 
004A1170 000000F4 
00491E94 00000304 
004930BC 0000023C 
004A1170 000000F4 
00491E94 00000304 
004930BC 0000023C 
004A1170 000000F4 
00491E94 00000304 
004930BC 0000023C 
004A1170 000000F4 
00491E94 00000304 
004930BC 0000023C 
004A1170 000000F4 
00491E94 00000304 
004930BC 0000023C 
004A1170 000000F4 
00491E94 00000304 
004930BC 0000023C 
004A1170 000000F4 
00491E94 00000304 
004930BC 0000023C 
004A1170 000000F4 
00491E94 00000304 
004930BC 0000023C 
004A1170 000000F4 
00491E94 00000304 
004930BC 0000023C 
004A1170 000000F4 
00491E94 00000304 
004930BC 0000023C 
004A1170 000000F4 
00491E94 00000304 
004930BC 0000023C 
004A1170 000000F4 
00491E94 00000304 
004930BC 0000023C 
004A1170 000000F4 
00491E94 00000304 
004930BC 0000023C 
004A1170 000000F4 
00491E94 00000304 
004930BC 0000023C 
004A1170 000000F4 
00491E94 00000304 
004930BC 0000023C 
004A1170 000000F4 
00491E94 00000304 
004930BC 0000023C 
004A1170 000000F4 
00491E94 00000304 
004930BC 0000023C 
004A1170 000000F4 
00491E94 00000304 
004930BC 0000023C 
004A1170 000000F4 
00491E94 00000304 
004930BC 0000023C 
004A1170 000000F4 
00491E94 00000304 
004930BC 0000023C 
004A1170 000000F4 
00491E94 00000304 
004930BC 0000023C 
004A1170 000000F4 
00491E94 00000304 
004930BC 0000023C 
004A1170 000000F4 
00491E94 00000304 
004930BC 0000023C 
004A1170 000000F4 
00491E94 00000304 
004930BC 0000023C 
004A1170 000000F4 
00491E94 00000304 
004930BC 0000023C 
004A1170 000000F4 
00491E94 00000304 
004930BC 0000023C 
004A1170 000000F4 
00491E94 00000304 
004930BC 0000023C 
004A1170 000000F4 
00491E94 00000304 
004930BC 0000023C 
004A1170 000000F4 
00491E94 00000304 
004930BC 0000023C 
004A1170 000000F4 
00491E94 00000304 
004930BC 0000023C 
004A1170 000000F4 
00491E94 00000304 
004930BC 0000023C 
004A1170 000000F4 
00491E94 00000304 
004930BC 0000023C 
004A1170 000000F4 
00491E94 00000304 
004930BC 0000023C 
004A1170 000000F4 
00491E94 00000304 
004930BC 0000023C 
004A1170 000000F4 
00491E94 00000304 
004930BC 0000023C 
004A1170 000000F4 
00491E94 00000304 
004930BC 0000023C 
004A1170 000000F4 
00491E94 00000304 
004930BC 0000023C 
004A1170 000000F4 
00491E94 00000304 
004930BC 0000023C 
004A1170 000000F4 
00491E94 00000304 
004930BC 0000023C 
004A1170 000000F4 
00491E94 00000304 
004930BC 0000023C 
004A1170 000000F4 
00491E94 00000304 
004930BC 0000023C 
004A1170 000000F4 
00491E94 00000304 
004930BC 0000023C 
004A1170 000000F4 
00491E94 00000304 
004930BC 0000023C 
004A1170 000000F4 
00491E94 00000304 
004930BC 0000023C 
004A1170 000000F4 
00491E94 00000304 
004930BC 0000023C 
004A1170 000000F4 
00491E94 00000304 
004930BC 0000023C 
004A1170 000000F4 
00491E94 00000304 
004930BC 0000023C 
004A1170 000000F4 
00491E94 00000304 
004930BC 0000023C 
004A1170 000000F4 
00491E94 00000304 
004930BC 0000023C 
004A1170 000000F4 
00491E94 00000304 
004930BC 0000023C 
004A1170 000000F4 
00491E94 00000304 
004930BC 0000023C 
004A1170 000000F4 
00491E94 00000304 
004930BC 0000023C 
004A1170 000000F4 
00491E94 00000304 
004930BC 0000023C 
004A1170 000000F4 
00491E94 00000304 
004930BC 0000023C 
004A1170 000000F4 
00491E94 00000304 
004930BC 0000023C 
004A1170 000000F4 
00491E94 00000304 
004930BC 0000023C 
004A1170 000000F4 
00491E94 00000304 
004930BC 0000023C 
004A1170 000000F4 
00491E94 00000304 
004930BC 0000023C 
004A1170 000000F4 
00491E94 00000304 
004930BC 0000023C 
004A1170 000000F4 
00491E94 00000304 
004930BC 0000023C 
004A1170 000000F4 
00491E94 00000304 
004930BC 0000023C 
004A1170 000000F4 
00491E94 00000304 
004930BC 0000023C 
004A1170 000000F4 
00491E94 00000304 
004930BC 0000023C 
004A1170 000000F4 
00491E94 00000304 
004930BC 0000023C 
004A1170 000000F4 
00491E94 00000304 
004930BC 0000023C 
004A1170 000000F4 
00491E94 00000304 
004930BC 0000023C 
004A1170 000000F4 
00491E94 00000304 
004930BC 0000023C 
004A1170 000000F4 
00491E94 00000304 
004930BC 0000023C 
004A1170 000000F4 
00491E94 00000304 
004930BC 0000023C 
004A1170 000000F4 
00491E94 00000304 
004930BC 0000023C 
004A1170 000000F4 
00491E94 00000304 
004930BC 0000023C 
004A1170 000000F4 
00491E94 00000304 
004930BC 0000023C 
004A1170 000000F4 
00491E94 00000304 
004930BC 0000023C 
004A1170 000000F4 
00491E94 00000304 
004930BC 0000023C 
004A1170 000000F4 
00491E94 00000304 
004930BC 0000023C 
004A1170 000000F4 
00491E94 00000304 
004930BC 0000023C 
004A1170 000000F4 
00491E94 00000304 
004930BC 0000023C 
004A1170 000000F4 
00491E94 00000304 
004930BC 0000023C 
004A1170 000000F4 
00491E94 00000304 
004930BC 0000023C 
004A1170 000000F4 
00491E94 00000304 
004930BC 0000023C 
004A1170 000000F4 
00491E94 00000304 
004930BC 0000023C 
004A1170 000000F4 
00491E94 00000304 
004930BC 0000023C 
004A1170 000000F4 
00491E94 00000304 
004930BC 0000023C 
004A1170 000000F4 
00491E94 00000304 
004930BC 0000023C 
004A1170 000000F4 
00491E94 00000304 
004930BC 0000023C 
004A1170 000000F4 
00491E94 00000304 
004930BC 0000023C 
004A1170 000000F4 
00491E94 00000304 
004930BC 0000023C 
004A1170 000000F4 
00491E94 00000304 
004930BC 0000023C 
004A1170 000000F4 
00491E94 00000304 
004930BC 0000023C 
004A1170 000000F4 
00491E94 00000304 
004930BC 0000023C 
004A1170 000000F4 
00491E94 00000304 
004930BC 0000023C 
004A1170 000000F4 
00491E94 00000304 
004930BC 0000023C 
004A1170 000000F4 
00491E94 00000304 
004930BC 0000023C 
004A1170 000000F4 
00491E94 00000304 
004930BC 0000023C 
004A1170 000000F4 
00491E94 00000304 
004930BC 0000023C 
004A1170 000000F4 
00491E94 00000304 
004930BC 0000023C 
004A1170 000000F4 
00491E94 00000304 
004930BC 0000023C 
004A1170 000000F4 
00491E94 00000304 
004930BC 0000023C 
004A1170 000000F4 
00491E94 00000304 
004930BC 0000023C 
004A1170 000000F4 
00491E94 00000304 
004930BC 0000023C 
004A1170 000000F4 
00491E94 00000304 
004930BC 0000023C 
004A1170 000000F4 
00491E94 00000304 
004930BC 0000023C 
004A1170 000000F4 
00491E94 00000304 
004930BC 0000023C 
004A1170 000000F4 
00491E94 00000304 
004930BC 0000023C 
004A1170 000000F4 
00491E94 00000304 
004930BC 0000023C 
004A1170 000000F4 
00491E94 00000304 
004930BC 0000023C 
004A1170 000000F4 
00491E94 00000304 
004930BC 0000023C 
004A1170 000000F4 
00491E94 00000304 
004930BC 0000023C 
004A1170 000000F4 
00491E94 00000304 
004930BC 0000023C 
004A1170 000000F4 
00491E94 00000304 
004930BC 0000023C 
004A1170 000000F4 
00491E94 00000304 
004930BC 0000023C 
004A1170 000000F4 
00491E94 00000304 
004930BC 0000023C 
004A1170 000000F4 
00491E94 00000304 
004930BC 0000023C 
004A1170 000000F4 
00491E94 00000304 
004930BC 0000023C 
004A1170 000000F4 
00491E94 00000304 
004930BC 0000023C 
004A1170 000000F4 
00491E94 00000304 
004930BC 0000023C 
004A1170 000000F4 
00491E94 00000304 
004930BC 0000023C 
004A1170 000000F4 
00491E94 00000304 
004930BC 0000023C 
004A1170 000000F4 
00491E94 00000304 
004930BC 0000023C 
004A1170 000000F4 
00491E94 00000304 
004930BC 0000023C 
004A1170 000000F4 
00491E94 00000304 
004930BC 0000023C 
004A1170 000000F4 
00491E94 00000304 
004930BC 0000023C 
004A1170 000000F4 
00491E94 00000304 
004930BC 0000023C 
004A1170 000000F4 
00491E94 00000304 
004930BC 0000023C 
004A1170 000000F4 
00491E94 00000304 
004930BC 0000023C 
004A1170 000000F4 
00491E94 00000304 
004930BC 0000023C 
004A1170 000000F4 
00491E94 00000304 
004930BC 0000023C 
004A1170 000000F4 
00491E94 00000304 
004930BC 0000023C 
004A1170 000000F4 
00491E94 00000304 
004930BC 0000023C 
004A1170 000000F4 
00491E94 00000304 
004930BC 0000023C 
004A1170 000000F4 
00491E94 00000304 
004930BC 0000023C 
004A1170 000000F4 
00491E94 00000304 
004930BC 0000023C 
004A1170 000000F4 
00491E94 00000304 
004930BC 0000023C 
004A1170 000000F4 
00491E94 00000304 
004930BC 0000023C 
004A1170 000000F4 
00491E94 00000304 
004930BC 0000023C 
004A1170 000000F4 
00491E94 00000304 
004930BC 0000023C 
004A1170 000000F4 
00491E94 00000304 
004930BC 0000023C 
004A1170 000000F4 
00491E94 00000304 
004930BC 0000023C 
004A1170 000000F4 
00491E94 00000304 
004930BC 0000023C 
004A1170 000000F4 
00491E94 00000304 
004930BC 0000023C 
004A1170 000000F4 
00491E94 00000304 
004930BC 0000023C 
004A1170 000000F4 
00491E94 00000304 
004930BC 0000023C 
004A1170 000000F4 
00491E94 00000304 
004930BC 0000023C 
004A1170 000000F4 
00491E94 00000304 
004930BC 0000023C 
004A1170 000000F4 
00491E94 00000304 
004930BC 0000023C 
004A1170 000000F4 
00491E94 00000304 
004930BC 0000023C 
004A1170 000000F4 
00491E94 00000304 
004930BC 0000023C 
004A1170 000000F4 
00491E94 00000304 
004930BC 0000023C 
004A1170 000000F4 
00491E94 00000304 
004930BC 0000023C 
004A1170 000000F4 
00491E94 00000304 
004930BC 0000023C 
004A1170 000000F4 
00491E94 00000304 
004930BC 0000023C 
004A1170 000000F4 
00491E94 00000304 
004930BC 0000023C 
004A1170 000000F4 
00491E94 00000304 
004930BC 0000023C 
004A1170 000000F4 
00491E94 00000304 
004930BC 0000023C 
004A1170 000000F4 
00491E94 00000304 
004930BC 0000023C 
004A1170 000000F4 
00491E94 00000304 
004930BC 0000023C 
004A1170 000000F4 
00491E94 00000304 
004930BC 0000023C 
004A1170 000000F4 
00491E94 00000304 
004930BC 0000023C 
004A1170 000000F4 
00491E94 00000304 
004930BC 0000023C 
004A1170 000000F4 
00491E94 00000304 
004930BC 0000023C 
004A1170 000000F4 
00491E94 00000304 
004930BC 0000023C 
004A1170 000000F4 
00491E94 00000304 
004930BC 0000023C 
004A1170 000000F4 
00491E94 00000304 
004930BC 0000023C 
004A1170 000000F4 
00491E94 00000304 
004930BC 0000023C 
004A1170 000000F4 
00491E94 00000304 
004930BC 0000023C 
004A1170 000000F4 
00491E94 00000304 
004930BC 0000023C 
004A1170 000000F4 
00491E94 00000304 
004930BC 0000023C 
004A1170 000000F4 
00491E94 00000304 
004930BC 0000023C 
004A1170 000000F4 
00491E94 00000304 
004930BC 0000023C 
004A1170 000000F4 
00491E94 00000304 
004930BC 0000023C 
004A1170 000000F4 
00491E94 00000304 
004930BC 0000023C 
004A1170 000000F4 
00491E94 00000304 
004930BC 0000023C 
004A1170 000000F4 
00491E94 00000304 
004930BC 0000023C 
004A1170 000000F4 
00491E94 00000304 
004930BC 0000023C 
004A1170 000000F4 
00491E94 00000304 
004930BC 0000023C 
004A1170 000000F4 
00491E94 00000304 
004930BC 0000023C 
004A1170 000000F4 
00491E94 00000304 
004930BC 0000023C 
004A1170 000000F4 
00491E94 00000304 
004930BC 0000023C 
004A1170 000000F4 
00491E94 00000304 
004930BC 0000023C 
004A1170 000000F4 
00491E94 00000304 
004930BC 0000023C 
004A1170 000000F4 
00491E94 00000304 
004930BC 0000023C 
004A1170 000000F4 
00491E94 00000304 
004930BC 0000023C 
004A1170 000000F4 
00491E94 00000304 
004930BC 0000023C 
004A1170 000000F4 
00491E94 00000304 
004930BC 0000023C 
004A1170 000000F4 
00491E94 00000304 
004930BC 0000023C 
004A1170 000000F4 
00491E94 00000304 
004930BC 0000023C 
004A1170 000000F4 
00491E94 00000304 
004930BC 0000023C 
004A1170 000000F4 
00491E94 00000304 
004930BC 0000023C 
004A1170 000000F4 
00491E94 00000304 
004930BC 0000023C 
004A1170 000000F4 
00491E94 00000304 
004930BC 0000023C 
004930BC 0000023C 
004A1170 000000F4 
00491E94 00000304 
004930BC 0000023C 
004A1170 000000F4 
00491E94 00000304 
004930BC 0000023C 
004A1170 000000F4 
00491E94 00000304 
004930BC 0000023C 
004A1170 000000F4 
00491E94 00000304 
004930BC 0000023C 
004A1170 000000F4 
00491E94 00000304 
004930BC 0000023C 
004A1170 000000F4 
00491E94 00000304 
004A1170 000000F4 
00491E94 00000304 
004930BC 0000023C 
004A1170 000000F4 
00491E94 00000304 
004930BC 0000023C 
004A1170 000000F4 
00491E94 00000304 
004930BC 0000023C 
004930BC 0000023C 
004A1170 000000F4 
00491E94 00000304 
004A1170 000000F4 
00491E94 00000304 
004930BC 0000023C 
004930BC 0000023C 
004A1170 000000F4 
004A1170 000000F4 
00491E94 00000304 
004930BC 0000023C 
00491E94 00000304 
004930BC 0000023C 
004A1170 000000F4 
00491E94 00000304 
004930BC 0000023C 
004A1170 000000F4 
00491E94 00000304 
004930BC 0000023C 
004A1170 000000F4 
00491E94 00000304 
004930BC 0000023C 
004A1170 000000F4 
00491E94 00000304 
004930BC 0000023C 
004A1170 000000F4 
00491E94 00000304 
004930BC 0000023C 
004A1170 000000F4 
00491E94 00000304 
004930BC 0000023C 
004A1170 000000F4 
00491E94 00000304 
004930BC 0000023C 
004A1170 000000F4 
00491E94 00000304 
004930BC 0000023C 
004A1170 000000F4 
00491E94 00000304 
004930BC 0000023C 
004A1170 000000F4 
00491E94 00000304 
004930BC 0000023C 
004A1170 000000F4 
00491E94 00000304 
004930BC 0000023C 
004A1170 000000F4 
00491E94 00000304 
004930BC 0000023C 
004A1170 000000F4 
00491E94 00000304 
004930BC 0000023C 
004A1170 000000F4 
00491E94 00000304 
004930BC 0000023C 
004A1170 000000F4 
00491E94 00000304 
004930BC 0000023C 
004A1170 000000F4 
00491E94 00000304 
004930BC 0000023C 
004A1170 000000F4 
00491E94 00000304 
004930BC 0000023C 
004A1170 000000F4 
00491E94 00000304 
004930BC 0000023C 
004A1170 000000F4 
00491E94 00000304 
004930BC 0000023C 
004A1170 000000F4 
00491E94 00000304 
004930BC 0000023C 
004A1170 000000F4 
00491E94 00000304 
004930BC 0000023C 
004A1170 000000F4 
00491E94 00000304 
004930BC 0000023C 
004A1170 000000F4 
00491E94 00000304 
004930BC 0000023C 
004A1170 000000F4 
00491E94 00000304 
004930BC 0000023C 
004A1170 000000F4 
00491E94 00000304 
004930BC 0000023C 
004A1170 000000F4 
00491E94 00000304 
004930BC 0000023C 
004A1170 000000F4 
00491E94 00000304 
004930BC 0000023C 
004A1170 000000F4 
00491E94 00000304 
004930BC 0000023C 
004A1170 000000F4 
00491E94 00000304 
004930BC 0000023C 
004A1170 000000F4 
00491E94 00000304 
004930BC 0000023C 
004A1170 000000F4 
00491E94 00000304 
004930BC 0000023C 
004A1170 000000F4 
00491E94 00000304 
004930BC 0000023C 
004A1170 000000F4 
00491E94 00000304 
004930BC 0000023C 
004A1170 000000F4 
00491E94 00000304 
004930BC 0000023C 
004A1170 000000F4 
00491E94 00000304 
004930BC 0000023C 
004A1170 000000F4 
00491E94 00000304 
004930BC 0000023C 
004A1170 000000F4 
00491E94 00000304 
004930BC 0000023C 
004A1170 000000F4 
00491E94 00000304 
004930BC 0000023C 
004A1170 000000F4 
00491E94 00000304 
004930BC 0000023C 
004A1170 000000F4 
00491E94 00000304 
004930BC 0000023C 
004A1170 000000F4 
00491E94 00000304 
004930BC 0000023C 
004A1170 000000F4 
00491E94 00000304 
004930BC 0000023C 
004A1170 000000F4 
00491E94 00000304 
004930BC 0000023C 
004A1170 000000F4 
00491E94 00000304 
004930BC 0000023C 
004A1170 000000F4 
00491E94 00000304 
004930BC 0000023C 
004A1170 000000F4 
00491E94 00000304 
004930BC 0000023C 
004A1170 000000F4 
00491E94 00000304 
004930BC 0000023C 
004A1170 000000F4 
00491E94 00000304 
004930BC 0000023C 
004A1170 000000F4 
00491E94 00000304 
004930BC 0000023C 
004A1170 000000F4 
00491E94 00000304 
004930BC 0000023C 
004A1170 000000F4 
00491E94 00000304 
004930BC 0000023C 
004A1170 000000F4 
00491E94 00000304 
004930BC 0000023C 
004A1170 000000F4 
00491E94 00000304 
004930BC 0000023C 
004A1170 000000F4 
00491E94 00000304 
004930BC 0000023C 
004A1170 000000F4 
00491E94 00000304 
004930BC 0000023C 
004A1170 000000F4 
00491E94 00000304 
004930BC 0000023C 
004A1170 000000F4 
00491E94 00000304 
004930BC 0000023C 
004A1170 000000F4 
00491E94 00000304 
004930BC 0000023C 
004A1170 000000F4 
00491E94 00000304 
004930BC 0000023C 
004A1170 000000F4 
00491E94 00000304 
004930BC 0000023C 
004A1170 000000F4 
00491E94 00000304 
004930BC 0000023C 
004A1170 000000F4 
00491E94 00000304 
004930BC 0000023C 
004A1170 000000F4 
00491E94 00000304 
004930BC 0000023C 
004A1170 000000F4 
00491E94 00000304 
004930BC 0000023C 
004A1170 000000F4 
00491E94 00000304 
004930BC 0000023C 
004A1170 000000F4 
00491E94 00000304 
004930BC 0000023C 
004A1170 000000F4 
00491E94 00000304 
004930BC 0000023C 
004A1170 000000F4 
00491E94 00000304 
004930BC 0000023C 
004A1170 000000F4 
00491E94 00000304 
004930BC 0000023C 
004A1170 000000F4 
00491E94 00000304 
004930BC 0000023C 
004A1170 000000F4 
00491E94 00000304 
004930BC 0000023C 
004A1170 000000F4 
00491E94 00000304 
004930BC 0000023C 
004A1170 000000F4 
00491E94 00000304 
004930BC 0000023C 
004A1170 000000F4 
00491E94 00000304 
004930BC 0000023C 
004A1170 000000F4 
00491E94 00000304 
004930BC 0000023C 
004A1170 000000F4 
00491E94 00000304 
004930BC 0000023C 
004A1170 000000F4 
00491E94 00000304 
004930BC 0000023C 
004A1170 000000F4 
00491E94 00000304 
004930BC 0000023C 
004A1170 000000F4 
00491E94 00000304 
004930BC 0000023C 
004A1170 000000F4 
00491E94 00000304 
004930BC 0000023C 
004A1170 000000F4 
00491E94 00000304 
004930BC 0000023C 
004A1170 000000F4 
00491E94 00000304 
004930BC 0000023C 
004A1170 000000F4 
00491E94 00000304 
004930BC 0000023C 
004A1170 000000F4 
00491E94 00000304 
004930BC 0000023C 
004A1170 000000F4 
00491E94 00000304 
004930BC 0000023C 
004A1170 000000F4 
00491E94 00000304 
004930BC 0000023C 
004A1170 000000F4 
00491E94 00000304 
004930BC 0000023C 
004A1170 000000F4 
00491E94 00000304 
004930BC 0000023C 
004A1170 000000F4 
00491E94 00000304 
004930BC 0000023C 
004A1170 000000F4 
00491E94 00000304 
004930BC 0000023C 
004A1170 000000F4 
00491E94 00000304 
004930BC 0000023C 
004A1170 000000F4 
00491E94 00000304 
004930BC 0000023C 
004A1170 000000F4 
00491E94 00000304 
004930BC 0000023C 
004A1170 000000F4 
00491E94 00000304 
004930BC 0000023C 
004A1170 000000F4 
00491E94 00000304 
004930BC 0000023C 
004A1170 000000F4 
00491E94 00000304 
004930BC 0000023C 
004A1170 000000F4 
00491E94 00000304 
004930BC 0000023C 
004A1170 000000F4 
00491E94 00000304 
004930BC 0000023C 
004A1170 000000F4 
00491E94 00000304 
004930BC 0000023C 
004A1170 000000F4 
00491E94 00000304 
004930BC 0000023C 
004A1170 000000F4 
00491E94 00000304 
004930BC 0000023C 
004A1170 000000F4 
00491E94 00000304 
004930BC 0000023C 
004A1170 000000F4 
00491E94 00000304 
004930BC 0000023C 
004A1170 000000F4 
00491E94 00000304 
004930BC 0000023C 
004A1170 000000F4 
00491E94 00000304 
004930BC 0000023C 
004A1170 000000F4 
00491E94 00000304 
004930BC 0000023C 
004A1170 000000F4 
00491E94 00000304 
004930BC 0000023C 
004A1170 000000F4 
00491E94 00000304 
004930BC 0000023C 
004A1170 000000F4 
00491E94 00000304 
004930BC 0000023C 
004A1170 000000F4 
00491E94 00000304 
004930BC 0000023C 
004A1170 000000F4 
00491E94 00000304 
004930BC 0000023C 
004A1170 000000F4 
00491E94 00000304 
004930BC 0000023C 
004A1170 000000F4 
00491E94 00000304 
004930BC 0000023C 
004A1170 000000F4 
00491E94 00000304 
004930BC 0000023C 
004A1170 000000F4 
00491E94 00000304 
004930BC 0000023C 
004A1170 000000F4 
00491E94 00000304 
004930BC 0000023C 
004A1170 000000F4 
00491E94 00000304 
004930BC 0000023C 
004A1170 000000F4 
00491E94 00000304 
004930BC 0000023C 
004A1170 000000F4 
00491E94 00000304 
004930BC 0000023C 
004A1170 000000F4 
00491E94 00000304 
004930BC 0000023C 
004A1170 000000F4 
00491E94 00000304 
004930BC 0000023C 
004A1170 000000F4 
00491E94 00000304 
004930BC 0000023C 
004A1170 000000F4 
00491E94 00000304 
004930BC 0000023C 
004A1170 000000F4 
00491E94 00000304 
004930BC 0000023C 
004A1170 000000F4 
00491E94 00000304 
004930BC 0000023C 
004A1170 000000F4 
00491E94 00000304 
004930BC 0000023C 
004A1170 000000F4 
00491E94 00000304 
004930BC 0000023C 
004A1170 000000F4 
00491E94 00000304 
004930BC 0000023C 
004A1170 000000F4 
00491E94 00000304 
004930BC 0000023C 
004A1170 000000F4 
00491E94 00000304 
004930BC 0000023C 
004A1170 000000F4 
00491E94 00000304 
004930BC 0000023C 
004A1170 000000F4 
00491E94 00000304 
004930BC 0000023C 
004A1170 000000F4 
00491E94 00000304 
004930BC 0000023C 
004A1170 000000F4 
00491E94 00000304 
004930BC 0000023C 
004A1170 000000F4 
00491E94 00000304 
004930BC 0000023C 
004A1170 000000F4 
00491E94 00000304 
004930BC 0000023C 
004A1170 000000F4 
00491E94 00000304 
004930BC 0000023C 
004A1170 000000F4 
00491E94 00000304 
004930BC 0000023C 
004A1170 000000F4 
00491E94 00000304 
004930BC 0000023C 
004A1170 000000F4 
00491E94 00000304 
004930BC 0000023C 
004A1170 000000F4 
00491E94 00000304 
004930BC 0000023C 
004A1170 000000F4 
00491E94 00000304 
004930BC 0000023C 
004A1170 000000F4 
00491E94 00000304 
004930BC 0000023C 
004A1170 000000F4 
00491E94 00000304 
004930BC 0000023C 
004A1170 000000F4 
00491E94 00000304 
004930BC 0000023C 
004A1170 000000F4 
00491E94 00000304 
004930BC 0000023C 
004A1170 000000F4 
00491E94 00000304 
004930BC 0000023C 
004A1170 000000F4 
00491E94 00000304 
004930BC 0000023C 
004A1170 000000F4 
00491E94 00000304 
004930BC 0000023C 
004A1170 000000F4 
00491E94 00000304 
004930BC 0000023C 
004A1170 000000F4 
00491E94 00000304 
004930BC 0000023C 
004A1170 000000F4 
00491E94 00000304 
004930BC 0000023C 
004A1170 000000F4 
00491E94 00000304 
004930BC 0000023C 
004A1170 000000F4 
00491E94 00000304 
004930BC 0000023C 
004A1170 000000F4 
00491E94 00000304 
004930BC 0000023C 
004A1170 000000F4 
00491E94 00000304 
004930BC 0000023C 
004A1170 000000F4 
00491E94 00000304 
004930BC 0000023C 
004A1170 000000F4 
00491E94 00000304 
004930BC 0000023C 
004A1170 000000F4 
00491E94 00000304 
004930BC 0000023C 
004A1170 000000F4 
00491E94 00000304 
004930BC 0000023C 
004A1170 000000F4 
00491E94 00000304 
004930BC 0000023C 
004A1170 000000F4 
00491E94 00000304 
004930BC 0000023C 
004A1170 000000F4 
00491E94 00000304 
004930BC 0000023C 
004A1170 000000F4 
00491E94 00000304 
004930BC 0000023C 
004A1170 000000F4 
00491E94 00000304 
004930BC 0000023C 
004A1170 000000F4 
00491E94 00000304 
004930BC 0000023C 
004A1170 000000F4 
00491E94 00000304 
004930BC 0000023C 
004A1170 000000F4 
00491E94 00000304 
004930BC 0000023C 
004A1170 000000F4 
00491E94 00000304 
004930BC 0000023C 
004A1170 000000F4 
00491E94 00000304 
004930BC 0000023C 
004A1170 000000F4 
00491E94 00000304 
004930BC 0000023C 
004A1170 000000F4 
00491E94 00000304 
004930BC 0000023C 
004A1170 000000F4 
00491E94 00000304 
004930BC 0000023C 
004A1170 000000F4 
00491E94 00000304 
004930BC 0000023C 
004A1170 000000F4 
00491E94 00000304 
004930BC 0000023C 
004A1170 000000F4 
00491E94 00000304 
004930BC 0000023C 
004A1170 000000F4 
00491E94 00000304 
004930BC 0000023C 
004A1170 000000F4 
00491E94 00000304 
004930BC 0000023C 
004A1170 000000F4 
00491E94 00000304 
004930BC 0000023C 
004A1170 000000F4 
00491E94 00000304 
004930BC 0000023C 
004A1170 000000F4 
00491E94 00000304 
004930BC 0000023C 
004A1170 000000F4 
00491E94 00000304 
004930BC 0000023C 
004A1170 000000F4 
00491E94 00000304 
004930BC 0000023C 
004A1170 000000F4 
00491E94 00000304 
004930BC 0000023C 
004A1170 000000F4 
00491E94 00000304 
004930BC 0000023C 
004A1170 000000F4 
00491E94 00000304 
004930BC 0000023C 
004A1170 000000F4 
00491E94 00000304 
004930BC 0000023C 
004A1170 000000F4 
00491E94 00000304 
004930BC 0000023C 
004A1170 000000F4 
00491E94 00000304 
004930BC 0000023C 
004A1170 000000F4 
00491E94 00000304 
004930BC 0000023C 
004FD150 00000104 
005304B8 00000748 
00530C08 00000304 
004FD258 000000DC 
00530F10 00000133 
004A1170 000000F4 
00491E94 00000304 
004930BC 0000023C 
004A1170 000000F4 
00491E94 00000304 
004930BC 0000023C 
004A1170 000000F4 
00491E94 00000304 
004930BC 0000023C 
004A1170 000000F4 
00491E94 00000304 
004930BC 0000023C 
004A1170 000000F4 
00491E94 00000304 
004930BC 0000023C 
004A1170 000000F4 
00491E94 00000304 
004930BC 0000023C 
004A1170 000000F4 
00491E94 00000304 
004930BC 0000023C 
004A1170 000000F4 
00491E94 00000304 
004930BC 0000023C 
004A1170 000000F4 
00491E94 00000304 
004930BC 0000023C 
004A1170 000000F4 
00491E94 00000304 
004930BC 0000023C 
004A1170 000000F4 
00491E94 00000304 
004930BC 0000023C 
004A1170 000000F4 
00491E94 00000304 
004930BC 0000023C 
004A1170 000000F4 
00491E94 00000304 
004930BC 0000023C 
004A1170 000000F4 
00491E94 00000304 
004930BC 0000023C 
004A1170 000000F4 
00491E94 00000304 
004930BC 0000023C 
004A1170 000000F4 
00491E94 00000304 
004930BC 0000023C 
004A1170 000000F4 
00491E94 00000304 
004930BC 0000023C 
004A1170 000000F4 
00491E94 00000304 
004930BC 0000023C 
004A1170 000000F4 
00491E94 00000304 
004930BC 0000023C 
004A1170 000000F4 
00491E94 00000304 
004930BC 0000023C 
004A1170 000000F4 
00491E94 00000304 
004930BC 0000023C 
004A1170 000000F4 
00491E94 00000304 
004930BC 0000023C 
004A1170 000000F4 
00491E94 00000304 
004930BC 0000023C 
004A1170 000000F4 
00491E94 00000304 
004930BC 0000023C 
004A1170 000000F4 
00491E94 00000304 
004930BC 0000023C 
004A1170 000000F4 
00491E94 00000304 
004930BC 0000023C 
004A1170 000000F4 
00491E94 00000304 
004930BC 0000023C 
004A1170 000000F4 
00491E94 00000304 
004930BC 0000023C 
004A1170 000000F4 
00491E94 00000304 
004930BC 0000023C 
004A1170 000000F4 
00491E94 00000304 
004930BC 0000023C 
004A1170 000000F4 
00491E94 00000304 
004930BC 0000023C 
004A1170 000000F4 
00491E94 00000304 
004930BC 0000023C 
004A1170 000000F4 
00491E94 00000304 
004930BC 0000023C 
004A1170 000000F4 
00491E94 00000304 
004930BC 0000023C 
004A1170 000000F4 
00491E94 00000304 
004930BC 0000023C 
004A1170 000000F4 
00491E94 00000304 
004930BC 0000023C 
004A1170 000000F4 
00491E94 00000304 
004930BC 0000023C 
004A1170 000000F4 
00491E94 00000304 
004930BC 0000023C 
004A1170 000000F4 
00491E94 00000304 
004930BC 0000023C 
004A1170 000000F4 
00491E94 00000304 
004930BC 0000023C 
004A1170 000000F4 
00491E94 00000304 
004930BC 0000023C 
004A1170 000000F4 
00491E94 00000304 
004930BC 0000023C 
004A1170 000000F4 
00491E94 00000304 
004930BC 0000023C 
004A1170 000000F4 
00491E94 00000304 
004930BC 0000023C 
004A1170 000000F4 
00491E94 00000304 
004930BC 0000023C 
004A1170 000000F4 
00491E94 00000304 
004930BC 0000023C 
004A1170 000000F4 
00491E94 00000304 
004930BC 0000023C 
004A1170 000000F4 
00491E94 00000304 
004930BC 0000023C 
004A1170 000000F4 
00491E94 00000304 
004930BC 0000023C 
004A1170 000000F4 
00491E94 00000304 
004930BC 0000023C 
004A1170 000000F4 
00491E94 00000304 
004930BC 0000023C 
004A1170 000000F4 
00491E94 00000304 
004930BC 0000023C 
004A1170 000000F4 
00491E94 00000304 
004930BC 0000023C 
004A1170 000000F4 
00491E94 00000304 
004930BC 0000023C 
004A1170 000000F4 
00491E94 00000304 
004930BC 0000023C 
004A1170 000000F4 
00491E94 00000304 
004930BC 0000023C 
004A1170 000000F4 
00491E94 00000304 
004930BC 0000023C 
004A1170 000000F4 
00491E94 00000304 
004930BC 0000023C 
004A1170 000000F4 
00491E94 00000304 
004930BC 0000023C 
004A1170 000000F4 
00491E94 00000304 
004930BC 0000023C 
004A1170 000000F4 
00491E94 00000304 
004930BC 0000023C 
004A1170 000000F4 
00491E94 00000304 
004930BC 0000023C 
004A1170 000000F4 
00491E94 00000304 
004930BC 0000023C 
004A1170 000000F4 
00491E94 00000304 
004930BC 0000023C 
004A1170 000000F4 
00491E94 00000304 
004930BC 0000023C 
004A1170 000000F4 
00491E94 00000304 
004930BC 0000023C 
004A1170 000000F4 
00491E94 00000304 
004930BC 0000023C 
004A1170 000000F4 
00491E94 00000304 
004930BC 0000023C 
004A1170 000000F4 
00491E94 00000304 
004930BC 0000023C 
004A1170 000000F4 
00491E94 00000304 
004930BC 0000023C 
004A1170 000000F4 
00491E94 00000304 
004930BC 0000023C 
004A1170 000000F4 
00491E94 00000304 
004930BC 0000023C 
004A1170 000000F4 
00491E94 00000304 
004930BC 0000023C 
004A1170 000000F4 
00491E94 00000304 
004930BC 0000023C 
004A1170 000000F4 
00491E94 00000304 
004930BC 0000023C 
004A1170 000000F4 
00491E94 00000304 
004930BC 0000023C 
004A1170 000000F4 
00491E94 00000304 
004930BC 0000023C 
004A1170 000000F4 
00491E94 00000304 
004930BC 0000023C 
004A1170 000000F4 
00491E94 00000304 
004930BC 0000023C 
004A1170 000000F4 
00491E94 00000304 
004930BC 0000023C 
004A1170 000000F4 
00491E94 00000304 
004930BC 0000023C 
004A1170 000000F4 
00491E94 00000304 
004930BC 0000023C 
004A1170 000000F4 
00491E94 00000304 
004930BC 0000023C 
004A1170 000000F4 
00491E94 00000304 
004930BC 0000023C 
004A1170 000000F4 
00491E94 00000304 
004930BC 0000023C 
004A1170 000000F4 
00491E94 00000304 
004930BC 0000023C 
004A1170 000000F4 
00491E94 00000304 
004930BC 0000023C 
004A1170 000000F4 
00491E94 00000304 
004930BC 0000023C 
004A1170 000000F4 
00491E94 00000304 
004930BC 0000023C 
004A1170 000000F4 
00491E94 00000304 
004930BC 0000023C 
004A1170 000000F4 
00491E94 00000304 
004930BC 0000023C 
004A1170 000000F4 
00491E94 00000304 
004930BC 0000023C 
004A1170 000000F4 
00491E94 00000304 
004930BC 0000023C 
004A1170 000000F4 
00491E94 00000304 
004930BC 0000023C 
004A1170 000000F4 
00491E94 00000304 
004930BC 0000023C 
004A1170 000000F4 
00491E94 00000304 
004930BC 0000023C 
004A1170 000000F4 
00491E94 00000304 
004930BC 0000023C 
004A1170 000000F4 
00491E94 00000304 
004930BC 0000023C 
004A1170 000000F4 
00491E94 00000304 
004A1170 000000F4 
00491E94 00000304 
004930BC 0000023C 
004930BC 0000023C 
004A1170 000000F4 
004A1170 000000F4 
00491E94 00000304 
004930BC 0000023C 
00491E94 00000304 
004930BC 0000023C 
004A1170 000000F4 
00491E94 00000304 
004A1170 000000F4 
00491E94 00000304 
004930BC 0000023C 
004A1170 000000F4 
00491E94 00000304 
004930BC 0000023C 
004A1170 000000F4 
00491E94 00000304 
004930BC 0000023C 
004A1170 000000F4 
00491E94 00000304 
004930BC 0000023C 
004A1170 000000F4 
00491E94 00000304 
004930BC 0000023C 
004A1170 000000F4 
00491E94 00000304 
004930BC 0000023C 
004A1170 000000F4 
00491E94 00000304 
004930BC 0000023C 
004A1170 000000F4 
00491E94 00000304 
004930BC 0000023C 
004A1170 000000F4 
00491E94 00000304 
004930BC 0000023C 
004A1170 000000F4 
00491E94 00000304 
004930BC 0000023C 
004A1170 000000F4 
00491E94 00000304 
004930BC 0000023C 
004A1170 000000F4 
00491E94 00000304 
004930BC 0000023C 
004A1170 000000F4 
00491E94 00000304 
004930BC 0000023C 
004A1170 000000F4 
00491E94 00000304 
004930BC 0000023C 
004A1170 000000F4 
00491E94 00000304 
004930BC 0000023C 
004A1170 000000F4 
00491E94 00000304 
004930BC 0000023C 
004A1170 000000F4 
00491E94 00000304 
004930BC 0000023C 
004A1170 000000F4 
00491E94 00000304 
004930BC 0000023C 
004A1170 000000F4 
00491E94 00000304 
004930BC 0000023C 
004A1170 000000F4 
00491E94 00000304 
004930BC 0000023C 
004A1170 000000F4 
00491E94 00000304 
004930BC 0000023C 
004A1170 000000F4 
00491E94 00000304 
004930BC 0000023C 
004A1170 000000F4 
00491E94 00000304 
004930BC 0000023C 
004A1170 000000F4 
00491E94 00000304 
004930BC 0000023C 
004A1170 000000F4 
00491E94 00000304 
004930BC 0000023C 
004A1170 000000F4 
00491E94 00000304 
004930BC 0000023C 
004A1170 000000F4 
00491E94 00000304 
004930BC 0000023C 
004A1170 000000F4 
00491E94 00000304 
004930BC 0000023C 
004A1170 000000F4 
00491E94 00000304 
004930BC 0000023C 
004A1170 000000F4 
00491E94 00000304 
004930BC 0000023C 
004A1170 000000F4 
00491E94 00000304 
004930BC 0000023C 
004A1170 000000F4 
00491E94 00000304 
004930BC 0000023C 
004A1170 000000F4 
00491E94 00000304 
004930BC 0000023C 
004A1170 000000F4 
00491E94 00000304 
004930BC 0000023C 
004A1170 000000F4 
00491E94 00000304 
004930BC 0000023C 
004A1170 000000F4 
00491E94 00000304 
004930BC 0000023C 
004A1170 000000F4 
00491E94 00000304 
004930BC 0000023C 
004A1170 000000F4 
00491E94 00000304 
004930BC 0000023C 
004A1170 000000F4 
00491E94 00000304 
004930BC 0000023C 
004A1170 000000F4 
00491E94 00000304 
004930BC 0000023C 
004A1170 000000F4 
00491E94 00000304 
004930BC 0000023C 
004A1170 000000F4 
00491E94 00000304 
004930BC 0000023C 
004A1170 000000F4 
00491E94 00000304 
004930BC 0000023C 
004A1170 000000F4 
00491E94 00000304 
004930BC 0000023C 
004A1170 000000F4 
00491E94 00000304 
004930BC 0000023C 
004A1170 000000F4 
00491E94 00000304 
004930BC 0000023C 
004A1170 000000F4 
00491E94 00000304 
004930BC 0000023C 
004A1170 000000F4 
00491E94 00000304 
004930BC 0000023C 
004A1170 000000F4 
00491E94 00000304 
004930BC 0000023C 
004A1170 000000F4 
00491E94 00000304 
004930BC 0000023C 
004A1170 000000F4 
00491E94 00000304 
004930BC 0000023C 
004A1170 000000F4 
00491E94 00000304 
004930BC 0000023C 
004A1170 000000F4 
00491E94 00000304 
004930BC 0000023C 
004A1170 000000F4 
00491E94 00000304 
004930BC 0000023C 
004A1170 000000F4 
00491E94 00000304 
004930BC 0000023C 
004A1170 000000F4 
00491E94 00000304 
004930BC 0000023C 
004A1170 000000F4 
00491E94 00000304 
004930BC 0000023C 
004A1170 000000F4 
00491E94 00000304 
004930BC 0000023C 
004A1170 000000F4 
00491E94 00000304 
004930BC 0000023C 
004A1170 000000F4 
00491E94 00000304 
004930BC 0000023C 
004A1170 000000F4 
00491E94 00000304 
004930BC 0000023C 
004A1170 000000F4 
00491E94 00000304 
004930BC 0000023C 
004A1170 000000F4 
00491E94 00000304 
004930BC 0000023C 
004A1170 000000F4 
00491E94 00000304 
004930BC 0000023C 
004A1170 000000F4 
00491E94 00000304 
004930BC 0000023C 
004A1170 000000F4 
00491E94 00000304 
004930BC 0000023C 
004A1170 000000F4 
00491E94 00000304 
004930BC 0000023C 
004A1170 000000F4 
00491E94 00000304 
004930BC 0000023C 
004A1170 000000F4 
00491E94 00000304 
004930BC 0000023C 
004A1170 000000F4 
00491E94 00000304 
004930BC 0000023C 
004A1170 000000F4 
00491E94 00000304 
004930BC 0000023C 
004A1170 000000F4 
00491E94 00000304 
004930BC 0000023C 
004A1170 000000F4 
00491E94 00000304 
004930BC 0000023C 
004A1170 000000F4 
00491E94 00000304 
004930BC 0000023C 
004A1170 000000F4 
00491E94 00000304 
004930BC 0000023C 
004A1170 000000F4 
00491E94 00000304 
004930BC 0000023C 
004A1170 000000F4 
00491E94 00000304 
004930BC 0000023C 
004A1170 000000F4 
00491E94 00000304 
004930BC 0000023C 
004A1170 000000F4 
00491E94 00000304 
004930BC 0000023C 
004A1170 000000F4 
00491E94 00000304 
004930BC 0000023C 
004A1170 000000F4 
00491E94 00000304 
004930BC 0000023C 
004A1170 000000F4 
00491E94 00000304 
004930BC 0000023C 
004A1170 000000F4 
00491E94 00000304 
004930BC 0000023C 
004A1170 000000F4 
00491E94 00000304 
004930BC 0000023C 
004A1170 000000F4 
00491E94 00000304 
004930BC 0000023C 
004A1170 000000F4 
00491E94 00000304 
004930BC 0000023C 
004A1170 000000F4 
00491E94 00000304 
004930BC 0000023C 
004A1170 000000F4 
00491E94 00000304 
004930BC 0000023C 
004A1170 000000F4 
00491E94 00000304 
004930BC 0000023C 
004A1170 000000F4 
00491E94 00000304 
004930BC 0000023C 
004A1170 000000F4 
00491E94 00000304 
004930BC 0000023C 
004A1170 000000F4 
00491E94 00000304 
004930BC 0000023C 
004A1170 000000F4 
00491E94 00000304 
004930BC 0000023C 
004A1170 000000F4 
00491E94 00000304 
004930BC 0000023C 
004A1170 000000F4 
00491E94 00000304 
004930BC 0000023C 
004A1170 000000F4 
00491E94 00000304 
004930BC 0000023C 
004A1170 000000F4 
00491E94 00000304 
004930BC 0000023C 
004A1170 000000F4 
00491E94 00000304 
004930BC 0000023C 
004930BC 0000023C 
004A1170 000000F4 
004A1170 000000F4 
00491E94 00000304 
004930BC 0000023C 
004A1170 000000F4 
00491E94 00000304 
004930BC 0000023C 
004A1170 000000F4 
00491E94 00000304 
004930BC 0000023C 
004A1170 000000F4 
00491E94 00000304 
004930BC 0000023C 
004A1170 000000F4 
00491E94 00000304 
004930BC 0000023C 
004A1170 000000F4 
00491E94 00000304 
004930BC 0000023C 
004A1170 000000F4 
00491E94 00000304 
004930BC 0000023C 
004A1170 000000F4 
00491E94 00000304 
004930BC 0000023C 
004A1170 000000F4 
00491E94 00000304 
004930BC 0000023C 
004A1170 000000F4 
00491E94 00000304 
004930BC 0000023C 
004A1170 000000F4 
00491E94 00000304 
004930BC 0000023C 
004A1170 000000F4 
00491E94 00000304 
004930BC 0000023C 
004A1170 000000F4 
00491E94 00000304 
004930BC 0000023C 
004A1170 000000F4 
00491E94 00000304 
004930BC 0000023C 
004A1170 000000F4 
00491E94 00000304 
004930BC 0000023C 
004A1170 000000F4 
00491E94 00000304 
004930BC 0000023C 
004A1170 000000F4 
00491E94 00000304 
004930BC 0000023C 
004A1170 000000F4 
00491E94 00000304 
004930BC 0000023C 
004A1170 000000F4 
00491E94 00000304 
004930BC 0000023C 
004A1170 000000F4 
00491E94 00000304 
004930BC 0000023C 
004A1170 000000F4 
00491E94 00000304 
004930BC 0000023C 
004A1170 000000F4 
00491E94 00000304 
004930BC 0000023C 
004A1170 000000F4 
00491E94 00000304 
004930BC 0000023C 
004A1170 000000F4 
00491E94 00000304 
004930BC 0000023C 
004A1170 000000F4 
00491E94 00000304 
004930BC 0000023C 
004A1170 000000F4 
00491E94 00000304 
004930BC 0000023C 
004A1170 000000F4 
00491E94 00000304 
004930BC 0000023C 
004A1170 000000F4 
00491E94 00000304 
004930BC 0000023C 
004A1170 000000F4 
00491E94 00000304 
004930BC 0000023C 
004A1170 000000F4 
00491E94 00000304 
004930BC 0000023C 
004A1170 000000F4 
00491E94 00000304 
004930BC 0000023C 
004A1170 000000F4 
00491E94 00000304 
004930BC 0000023C 
004A1170 000000F4 
00491E94 00000304 
004930BC 0000023C 
004A1170 000000F4 
00491E94 00000304 
004930BC 0000023C 
004A1170 000000F4 
00491E94 00000304 
004930BC 0000023C 
004A1170 000000F4 
00491E94 00000304 
004930BC 0000023C 
004A1170 000000F4 
00491E94 00000304 
004930BC 0000023C 
004A1170 000000F4 
00491E94 00000304 
004930BC 0000023C 
004A1170 000000F4 
00491E94 00000304 
004930BC 0000023C 
004A1170 000000F4 
00491E94 00000304 
004930BC 0000023C 
004A1170 000000F4 
00491E94 00000304 
004930BC 0000023C 
004A1170 000000F4 
00491E94 00000304 
004930BC 0000023C 
004A1170 000000F4 
00491E94 00000304 
004930BC 0000023C 
004A1170 000000F4 
00491E94 00000304 
004930BC 0000023C 
004A1170 000000F4 
00491E94 00000304 
004930BC 0000023C 
004A1170 000000F4 
00491E94 00000304 
004930BC 0000023C 
004A1170 000000F4 
00491E94 00000304 
004930BC 0000023C 
004A1170 000000F4 
00491E94 00000304 
004930BC 0000023C 
004A1170 000000F4 
00491E94 00000304 
004930BC 0000023C 
004A1170 000000F4 
00491E94 00000304 
004930BC 0000023C 
004A1170 000000F4 
00491E94 00000304 
004930BC 0000023C 
004A1170 000000F4 
00491E94 00000304 
004930BC 0000023C 
004A1170 000000F4 
00491E94 00000304 
004930BC 0000023C 
004A1170 000000F4 
00491E94 00000304 
004930BC 0000023C 
004A1170 000000F4 
00491E94 00000304 
004930BC 0000023C 
004A1170 000000F4 
00491E94 00000304 
004930BC 0000023C 
004A1170 000000F4 
00491E94 00000304 
004930BC 0000023C 
004A1170 000000F4 
00491E94 00000304 
004930BC 0000023C 
004A1170 000000F4 
00491E94 00000304 
004930BC 0000023C 
004A1170 000000F4 
00491E94 00000304 
004930BC 0000023C 
004A1170 000000F4 
00491E94 00000304 
004930BC 0000023C 
004A1170 000000F4 
00491E94 00000304 
004930BC 0000023C 
004A1170 000000F4 
00491E94 00000304 
004930BC 0000023C 
004A1170 000000F4 
00491E94 00000304 
004930BC 0000023C 
004A1170 000000F4 
00491E94 00000304 
004930BC 0000023C 
004A1170 000000F4 
00491E94 00000304 
004930BC 0000023C 
004A1170 000000F4 
00491E94 00000304 
004930BC 0000023C 
004A1170 000000F4 
00491E94 00000304 
004930BC 0000023C 
004A1170 000000F4 
00491E94 00000304 
004930BC 0000023C 
004A1170 000000F4 
00491E94 00000304 
004930BC 0000023C 
004A1170 000000F4 
00491E94 00000304 
004930BC 0000023C 
004A1170 000000F4 
00491E94 00000304 
004930BC 0000023C 
004A1170 000000F4 
00491E94 00000304 
004930BC 0000023C 
004A1170 000000F4 
00491E94 00000304 
004930BC 0000023C 
004A1170 000000F4 
00491E94 00000304 
004930BC 0000023C 
004A1170 000000F4 
00491E94 00000304 
004930BC 0000023C 
004A1170 000000F4 
00491E94 00000304 
004930BC 0000023C 
004A1170 000000F4 
00491E94 00000304 
004930BC 0000023C 
004A1170 000000F4 
00491E94 00000304 
004930BC 0000023C 
004A1170 000000F4 
00491E94 00000304 
004930BC 0000023C 
004A1170 000000F4 
00491E94 00000304 
004930BC 0000023C 
004A1170 000000F4 
00491E94 00000304 
004930BC 0000023C 
004A1170 000000F4 
00491E94 00000304 
004930BC 0000023C 
004A1170 000000F4 
00491E94 00000304 
004930BC 0000023C 
004A1170 000000F4 
00491E94 00000304 
004930BC 0000023C 
004A1170 000000F4 
00491E94 00000304 
004930BC 0000023C 
004A1170 000000F4 
00491E94 00000304 
004930BC 0000023C 
004A1170 000000F4 
00491E94 00000304 
004930BC 0000023C 
004A1170 000000F4 
00491E94 00000304 
004930BC 0000023C 
004A1170 000000F4 
00491E94 00000304 
004930BC 0000023C 
004A1170 000000F4 
00491E94 00000304 
004930BC 0000023C 
004A1170 000000F4 
00491E94 00000304 
004930BC 0000023C 
004A1170 000000F4 
00491E94 00000304 
004930BC 0000023C 
004A1170 000000F4 
00491E94 00000304 
004930BC 0000023C 
004A1170 000000F4 
00491E94 00000304 
004930BC 0000023C 
004A1170 000000F4 
00491E94 00000304 
004930BC 0000023C 
004A1170 000000F4 
00491E94 00000304 
004930BC 0000023C 
004A1170 000000F4 
00491E94 00000304 
004930BC 0000023C 
004A1170 000000F4 
00491E94 00000304 
004930BC 0000023C 
004A1170 000000F4 
00491E94 00000304 
004930BC 0000023C 
004A1170 000000F4 
00491E94 00000304 
004930BC 0000023C 
004A1170 000000F4 
00491E94 00000304 
004930BC 0000023C 
004A1170 000000F4 
00491E94 00000304 
004930BC 0000023C 
004A1170 000000F4 
00491E94 00000304 
004930BC 0000023C 
004A1170 000000F4 
00491E94 00000304 
004930BC 0000023C 
004A1170 000000F4 
00491E94 00000304 
004930BC 0000023C 
004A1170 000000F4 
00491E94 00000304 
004930BC 0000023C 
004A1170 000000F4 
00491E94 00000304 
004930BC 0000023C 
004A1170 000000F4 
00491E94 00000304 
004930BC 0000023C 
004A1170 000000F4 
00491E94 00000304 
004930BC 0000023C 
004A1170 000000F4 
00491E94 00000304 
004930BC 0000023C 
004A1170 000000F4 
00491E94 00000304 
004930BC 0000023C 
004A1170 000000F4 
00491E94 00000304 
004930BC 0000023C 
004A1170 000000F4 
00491E94 00000304 
004930BC 0000023C 
004A1170 000000F4 
00491E94 00000304 
004930BC 0000023C 
004A1170 000000F4 
00491E94 00000304 
004930BC 0000023C 
004A1170 000000F4 
00491E94 00000304 
004930BC 0000023C 
004A1170 000000F4 
00491E94 00000304 
004930BC 0000023C 
004A1170 000000F4 
00491E94 00000304 
004930BC 0000023C 
004A1170 000000F4 
00491E94 00000304 
004930BC 0000023C 
004A1170 000000F4 
00491E94 00000304 
004930BC 0000023C 
004A1170 000000F4 
00491E94 00000304 
004930BC 0000023C 
004A1170 000000F4 
00491E94 00000304 
004930BC 0000023C 
004A1170 000000F4 
00491E94 00000304 
004930BC 0000023C 
004A1170 000000F4 
00491E94 00000304 
004930BC 0000023C 
004A1170 000000F4 
00491E94 00000304 
004930BC 0000023C 
004A1170 000000F4 
00491E94 00000304 
004930BC 0000023C 
004A1170 000000F4 
00491E94 00000304 
004930BC 0000023C 
004A1170 000000F4 
00491E94 00000304 
004930BC 0000023C 
004A1170 000000F4 
00491E94 00000304 
004930BC 0000023C 
004A1170 000000F4 
00491E94 00000304 
004930BC 0000023C 
004A1170 000000F4 
00491E94 00000304 
004930BC 0000023C 
004A1170 000000F4 
00491E94 00000304 
004930BC 0000023C 
004A1170 000000F4 
00491E94 00000304 
004930BC 0000023C 
004A1170 000000F4 
00491E94 00000304 
004930BC 0000023C 
004A1170 000000F4 
00491E94 00000304 
004930BC 0000023C 
004A1170 000000F4 
00491E94 00000304 
004930BC 0000023C 
004A1170 000000F4 
00491E94 00000304 
004930BC 0000023C 
004A1170 000000F4 
00491E94 00000304 
004930BC 0000023C 
004A1170 000000F4 
00491E94 00000304 
004930BC 0000023C 
004A1170 000000F4 
00491E94 00000304 
004930BC 0000023C 
004A1170 000000F4 
00491E94 00000304 
004930BC 0000023C 
004A1170 000000F4 
00491E94 00000304 
004930BC 0000023C 
004A1170 000000F4 
00491E94 00000304 
004930BC 0000023C 
004A1170 000000F4 
00491E94 00000304 
004930BC 0000023C 
004A1170 000000F4 
00491E94 00000304 
004930BC 0000023C 
004A1170 000000F4 
00491E94 00000304 
004930BC 0000023C 
004A1170 000000F4 
00491E94 00000304 
004930BC 0000023C 
004A1170 000000F4 
00491E94 00000304 
004930BC 0000023C 
004A1170 000000F4 
00491E94 00000304 
004930BC 0000023C 
004A1170 000000F4 
00491E94 00000304 
004930BC 0000023C 
004A1170 000000F4 
00491E94 00000304 
004930BC 0000023C 
004A1170 000000F4 
00491E94 00000304 
004930BC 0000023C 
004A1170 000000F4 
00491E94 00000304 
004930BC 0000023C 
004A1170 000000F4 
[...]
004A1170 000000F4 
00491E94 00000304 
004930BC 0000023C 
004A1170 000000F4 
00491E94 00000304 
004930BC 0000023C 
004A1170 000000F4 
00491E94 00000304 
004930BC 0000023C 
004A1170 000000F4 
00491E94 00000304 
004930BC 0000023C 
004A1170 000000F4 
00491E94 00000304 
004930BC 0000023C 
004A1170 000000F4 
00491E94 00000304 
004930BC 0000023C 
004A1170 000000F4 
00491E94 00000304 
004930BC 0000023C 
004A1170 000000F4 
00491E94 00000304 
004930BC 0000023C 
004A1170 000000F4 
00491E94 00000304 
004930BC 0000023C 
004A1170 000000F4 
00491E94 00000304 
004930BC 0000023C 
004A1170 000000F4 
00491E94 00000304 
004930BC 0000023C 
004A1170 000000F4 
00491E94 00000304 
004930BC 0000023C 
004A1170 000000F4 
00491E94 00000304 
004930BC 0000023C 
004A1170 000000F4 
00491E94 00000304 
004930BC 0000023C 
004A1170 000000F4 
00491E94 00000304 
004930BC 0000023C 
004A1170 000000F4 
00491E94 00000304 
004930BC 0000023C 
004A1170 000000F4 
00491E94 00000304 
004930BC 0000023C 
004A1170 000000F4 
00491E94 00000304 
004930BC 0000023C 
004A1170 000000F4 
00491E94 00000304 
004930BC 0000023C 
004A1170 000000F4 
00491E94 00000304 
004930BC 0000023C 
004A1170 000000F4 
00491E94 00000304 
004930BC 0000023C 
004A1170 000000F4 
00491E94 00000304 
004930BC 0000023C 
004A1170 000000F4 
00491E94 00000304 
004930BC 0000023C 
004A1170 000000F4 
00491E94 00000304 
004930BC 0000023C 
004A1170 000000F4 
00491E94 00000304 
004930BC 0000023C 
004A1170 000000F4 
00491E94 00000304 
004930BC 0000023C 
004A1170 000000F4 
00491E94 00000304 
004930BC 0000023C 
004A1170 000000F4 
00491E94 00000304 
004930BC 0000023C 
004A1170 000000F4 
00491E94 00000304 
004930BC 0000023C 
004A1170 000000F4 
00491E94 00000304 
004930BC 0000023C 
004A1170 000000F4 
00491E94 00000304 
004930BC 0000023C 
004A1170 000000F4 
00491E94 00000304 
004930BC 0000023C 
004A1170 000000F4 
00491E94 00000304 
004930BC 0000023C 
004A1170 000000F4 
00491E94 00000304 
004930BC 0000023C 
004A1170 000000F4 
00491E94 00000304 
004930BC 0000023C 
004A1170 000000F4 
00491E94 00000304 
004930BC 0000023C 
004A1170 000000F4 
00491E94 00000304 
004930BC 0000023C 
004A1170 000000F4 
00491E94 00000304 
004930BC 0000023C 
004A1170 000000F4 
00491E94 00000304 
004930BC 0000023C 
004A1170 000000F4 
00491E94 00000304 
004930BC 0000023C 
004A1170 000000F4 
00491E94 00000304 
004930BC 0000023C 
004A1170 000000F4 
00491E94 00000304 
004930BC 0000023C 
004A1170 000000F4 
00491E94 00000304 
004930BC 0000023C 
004A1170 000000F4 
00491E94 00000304 
004930BC 0000023C 
004A1170 000000F4 
00491E94 00000304 
004930BC 0000023C 
004A1170 000000F4 
00491E94 00000304 
004930BC 0000023C 
004A1170 000000F4 
00491E94 00000304 
004930BC 0000023C 
004A1170 000000F4 
00491E94 00000304 
004930BC 0000023C 
004A1170 000000F4 
00491E94 00000304 
004930BC 0000023C 
004A1170 000000F4 
00491E94 00000304 
004930BC 0000023C 
004A1170 000000F4 
00491E94 00000304 
004930BC 0000023C 
004A1170 000000F4 
00491E94 00000304 
004930BC 0000023C 
004A1170 000000F4 
00491E94 00000304 
004930BC 0000023C 
004A1170 000000F4 
00491E94 00000304 
004930BC 0000023C 
004A1170 000000F4 
00491E94 00000304 
004930BC 0000023C 
004A1170 000000F4 
00491E94 00000304 
004930BC 0000023C 
004A1170 000000F4 
00491E94 00000304 
004930BC 0000023C 
004A1170 000000F4 
00491E94 00000304 
004930BC 0000023C 
004A1170 000000F4 
00491E94 00000304 
004930BC 0000023C 
004A1170 000000F4 
00491E94 00000304 
004930BC 0000023C 
004A1170 000000F4 
00491E94 00000304 
004930BC 0000023C 
004A1170 000000F4 
00491E94 00000304 
004930BC 0000023C 
004A1170 000000F4 
00491E94 00000304 
004930BC 0000023C 
004A1170 000000F4 
00491E94 00000304 
004930BC 0000023C 
004A1170 000000F4 
00491E94 00000304 
004930BC 0000023C 
004A1170 000000F4 
00491E94 00000304 
004930BC 0000023C 
004A1170 000000F4 
00491E94 00000304 
004930BC 0000023C 
004A1170 000000F4 
00491E94 00000304 
004930BC 0000023C 
004A1170 000000F4 
00491E94 00000304 
004930BC 0000023C 
004A1170 000000F4 
00491E94 00000304 
004930BC 0000023C 
004A1170 000000F4 
00491E94 00000304 
004930BC 0000023C 
004A1170 000000F4 
00491E94 00000304 
004930BC 0000023C 
004A1170 000000F4 
00491E94 00000304 
004930BC 0000023C 
004A1170 000000F4 
00491E94 00000304 
004930BC 0000023C 
004A1170 000000F4 
00491E94 00000304 
004930BC 0000023C 
004A1170 000000F4 
00491E94 00000304 
004930BC 0000023C 
004A1170 000000F4 
00491E94 00000304 
004930BC 0000023C 
004A1170 000000F4 
00491E94 00000304 
004930BC 0000023C 
004A1170 000000F4 
00491E94 00000304 
004930BC 0000023C 
004A1170 000000F4 
00491E94 00000304 
004930BC 0000023C 
004A1170 000000F4 
00491E94 00000304 
004930BC 0000023C 
004A1170 000000F4 
00491E94 00000304 
004930BC 0000023C 
004A1170 000000F4 
00491E94 00000304 
004930BC 0000023C 
004A1170 000000F4 
00491E94 00000304 
004930BC 0000023C 
004A1170 000000F4 
00491E94 00000304 
004930BC 0000023C 
004A1170 000000F4 
00491E94 00000304 
004930BC 0000023C 
004A1170 000000F4 
00491E94 00000304 
004930BC 0000023C 
004A1170 000000F4 
00491E94 00000304 
004930BC 0000023C 
004A1170 000000F4 
00491E94 00000304 
004930BC 0000023C 
004A1170 000000F4 
00491E94 00000304 
004930BC 0000023C 
004A1170 000000F4 
00491E94 00000304 
004930BC 0000023C 
004A1170 000000F4 
00491E94 00000304 
004930BC 0000023C 
004A1170 000000F4 
00491E94 00000304 
004930BC 0000023C 
004A1170 000000F4 
00491E94 00000304 
004930BC 0000023C 
004A1170 000000F4 
00491E94 00000304 
004930BC 0000023C 
004A1170 000000F4 
00491E94 00000304 
004930BC 0000023C 
004A1170 000000F4 
00491E94 00000304 
004930BC 0000023C 
004A1170 000000F4 
00491E94 00000304 
004930BC 0000023C 
004A1170 000000F4 
00491E94 00000304 
004930BC 0000023C 
004A1170 000000F4 
00491E94 00000304 
004930BC 0000023C 
004A1170 000000F4 
00491E94 00000304 
004930BC 0000023C 
004A1170 000000F4 
00491E94 00000304 
004930BC 0000023C 
004A1170 000000F4 
00491E94 00000304 
004930BC 0000023C 
004A1170 000000F4 
00491E94 00000304 
004930BC 0000023C 
004A1170 000000F4 
00491E94 00000304 
004930BC 0000023C 
004A1170 000000F4 
00491E94 00000304 
004930BC 0000023C 
004A1170 000000F4 
00491E94 00000304 
004930BC 0000023C 
004A1170 000000F4 
00491E94 00000304 
004930BC 0000023C 
004A1170 000000F4 
00491E94 00000304 
004930BC 0000023C 
004A1170 000000F4 
00491E94 00000304 
004930BC 0000023C 
004A1170 000000F4 
00491E94 00000304 
004930BC 0000023C 
004A1170 000000F4 
00491E94 00000304 
004930BC 0000023C 
004A1170 000000F4 
00491E94 00000304 
004930BC 0000023C 
004A1170 000000F4 
00491E94 00000304 
004930BC 0000023C 
004A1170 000000F4 
00491E94 00000304 
004930BC 0000023C 
004A1170 000000F4 
00491E94 00000304 
004930BC 0000023C 
004A1170 000000F4 
00491E94 00000304 
004930BC 0000023C 
004A1170 000000F4 
00491E94 00000304 
004930BC 0000023C 
004A1170 000000F4 
00491E94 00000304 
004930BC 0000023C 
004A1170 000000F4 
00491E94 00000304 
004930BC 0000023C 
004A1170 000000F4 
00491E94 00000304 
004930BC 0000023C 
004A1170 000000F4 
00491E94 00000304 
004930BC 0000023C 
004A1170 000000F4 
00491E94 00000304 
004930BC 0000023C 
004A1170 000000F4 
00491E94 00000304 
004930BC 0000023C 
004A1170 000000F4 
00491E94 00000304 
004930BC 0000023C 
004A1170 000000F4 
00491E94 00000304 
004930BC 0000023C 
004A1170 000000F4 
00491E94 00000304 
004930BC 0000023C 
004A1170 000000F4 
00491E94 00000304 
004930BC 0000023C 
004A1170 000000F4 
00491E94 00000304 
004930BC 0000023C 
004A1170 000000F4 
00491E94 00000304 
004930BC 0000023C 
004A1170 000000F4 
00491E94 00000304 
004930BC 0000023C 
004A1170 000000F4 
00491E94 00000304 
004930BC 0000023C 
004A1170 000000F4 
00491E94 00000304 
004930BC 0000023C 
004A1170 000000F4 
00491E94 00000304 
004930BC 0000023C 
004A1170 000000F4 
00491E94 00000304 
004930BC 0000023C 
004A1170 000000F4 
00491E94 00000304 
004930BC 0000023C 
004A1170 000000F4 
00491E94 00000304 
004930BC 0000023C 
004A1170 000000F4 
00491E94 00000304 
004930BC 0000023C 
004A1170 000000F4 
00491E94 00000304 
004930BC 0000023C 
004A1170 000000F4 
00491E94 00000304 
004930BC 0000023C 
004A1170 000000F4 
00491E94 00000304 
004930BC 0000023C 
004A1170 000000F4 
00491E94 00000304 
004930BC 0000023C 
004A1170 000000F4 
00491E94 00000304 
004930BC 0000023C 
004A1170 000000F4 
00491E94 00000304 
004930BC 0000023C 
004A1170 000000F4 
00491E94 00000304 
004930BC 0000023C 
004A1170 000000F4 
00491E94 00000304 
004930BC 0000023C 
004A1170 000000F4 
00491E94 00000304 
004930BC 0000023C 
004A1170 000000F4 
00491E94 00000304 
004930BC 0000023C 
004A1170 000000F4 
00491E94 00000304 
004930BC 0000023C 
004A1170 000000F4 
00491E94 00000304 
004930BC 0000023C 
004A1170 000000F4 
00491E94 00000304 
004930BC 0000023C 
004A1170 000000F4 
00491E94 00000304 
004930BC 0000023C 
004A1170 000000F4 
00491E94 00000304 
004930BC 0000023C 
004A1170 000000F4 
00491E94 00000304 
004930BC 0000023C 
004A1170 000000F4 
00491E94 00000304 
004930BC 0000023C 
004A1170 000000F4 
00491E94 00000304 
004930BC 0000023C 
004A1170 000000F4 
00491E94 00000304 
004930BC 0000023C 
004A1170 000000F4 
00491E94 00000304 
004930BC 0000023C 
004A1170 000000F4 
00491E94 00000304 
004930BC 0000023C 
004A1170 000000F4 
00491E94 00000304 
004930BC 0000023C 
004A1170 000000F4 
00491E94 00000304 
004930BC 0000023C 
004A1170 000000F4 
00491E94 00000304 
004930BC 0000023C 
004A1170 000000F4 
00491E94 00000304 
004930BC 0000023C 
004A1170 000000F4 
00491E94 00000304 
004930BC 0000023C 
004A1170 000000F4 
00491E94 00000304 
004930BC 0000023C 
004A1170 000000F4 
00491E94 00000304 
004930BC 0000023C 
004A1170 000000F4 
00491E94 00000304 
004930BC 0000023C 
004A1170 000000F4 
00491E94 00000304 
004930BC 0000023C 
004A1170 000000F4 
00491E94 00000304 
004930BC 0000023C 
004A1170 000000F4 
00491E94 00000304 
004930BC 0000023C 
004A1170 000000F4 
00491E94 00000304 
004930BC 0000023C 
004A1170 000000F4 
00491E94 00000304 
004930BC 0000023C 
004A1170 000000F4 
00491E94 00000304 
004930BC 0000023C 
004A1170 000000F4 
00491E94 00000304 
004930BC 0000023C 
004A1170 000000F4 
00491E94 00000304 
004930BC 0000023C 
004A1170 000000F4 
00491E94 00000304 
004930BC 0000023C 
004A1170 000000F4 
00491E94 00000304 
004930BC 0000023C 
004A1170 000000F4 
00491E94 00000304 
004930BC 0000023C 
004A1170 000000F4 
00491E94 00000304 
004930BC 0000023C 
004A1170 000000F4 
00491E94 00000304 
004930BC 0000023C 
004A1170 000000F4 
00491E94 00000304 
004930BC 0000023C 
004A1170 000000F4 
00491E94 00000304 
004930BC 0000023C 
004A1170 000000F4 
00491E94 00000304 
004930BC 0000023C 
004A1170 000000F4 
00491E94 00000304 
004930BC 0000023C 
004A1170 000000F4 
00491E94 00000304 
004930BC 0000023C 
004A1170 000000F4 
00491E94 00000304 
004930BC 0000023C 
004A1170 000000F4 
00491E94 00000304 
004930BC 0000023C 
004A1170 000000F4 
00491E94 00000304 
004930BC 0000023C 
004A1170 000000F4 
00491E94 00000304 
004930BC 0000023C 
004A1170 000000F4 
00491E94 00000304 
004930BC 0000023C 
004A1170 000000F4 
00491E94 00000304 
004930BC 0000023C 
004A1170 000000F4 
00491E94 00000304 
004930BC 0000023C 
004A1170 000000F4 
00491E94 00000304 
004930BC 0000023C 
004A1170 000000F4 
00491E94 00000304 
004930BC 0000023C 
004A1170 000000F4 
00491E94 00000304 
004930BC 0000023C 
004A1170 000000F4 
00491E94 00000304 
004930BC 0000023C 
004A1170 000000F4 
00491E94 00000304 
004930BC 0000023C 
004A1170 000000F4 
00491E94 00000304 
004930BC 0000023C 
004A1170 000000F4 
00491E94 00000304 
004930BC 0000023C 
004A1170 000000F4 
00491E94 00000304 
004930BC 0000023C 
004A1170 000000F4 
00491E94 00000304 
004930BC 0000023C 
004A1170 000000F4 
00491E94 00000304 
004930BC 0000023C 
004A1170 000000F4 
00491E94 00000304 
004930BC 0000023C 
004A1170 000000F4 
00491E94 00000304 
004930BC 0000023C 
004A1170 000000F4 
00491E94 00000304 
004930BC 0000023C 
004A1170 000000F4 
00491E94 00000304 
004930BC 0000023C 
004A1170 000000F4 
00491E94 00000304 
004930BC 0000023C 
004A1170 000000F4 
00491E94 00000304 
004930BC 0000023C 
004A1170 000000F4 
00491E94 00000304 
004930BC 0000023C 
004A1170 000000F4 
00491E94 00000304 
004930BC 0000023C 
004A1170 000000F4 
00491E94 00000304 
004930BC 0000023C 
004A1170 000000F4 
00491E94 00000304 
004930BC 0000023C 
004A1170 000000F4 
00491E94 00000304 
004930BC 0000023C 
004A1170 000000F4 
00491E94 00000304 
004930BC 0000023C 
004A1170 000000F4 
00491E94 00000304 
004930BC 0000023C 
004A1170 000000F4 
00491E94 00000304 
004930BC 0000023C 
004A1170 000000F4 
00491E94 00000304 
004930BC 0000023C 
004A1170 000000F4 
00491E94 00000304 
004930BC 0000023C 
004A1170 000000F4 
00491E94 00000304 
004930BC 0000023C 
004A1170 000000F4 
00491E94 00000304 
004930BC 0000023C 
004A1170 000000F4 
00491E94 00000304 
004930BC 0000023C 
004A1170 000000F4 
00491E94 00000304 
004930BC 0000023C 
004A1170 000000F4 
00491E94 00000304 
004930BC 0000023C 
004A1170 000000F4 
00491E94 00000304 
004930BC 0000023C 
004A1170 000000F4 
00491E94 00000304 
004930BC 0000023C 
004A1170 000000F4 
00491E94 00000304 
004930BC 0000023C 
004A1170 000000F4 
00491E94 00000304 
004930BC 0000023C 
004A1170 000000F4 
00491E94 00000304 
004930BC 0000023C 
004A1170 000000F4 
00491E94 00000304 
004930BC 0000023C 
004A1170 000000F4 
00491E94 00000304 
004930BC 0000023C 
004A1170 000000F4 
00491E94 00000304 
004930BC 0000023C 
004A1170 000000F4 
00491E94 00000304 
004930BC 0000023C 
004A1170 000000F4 
00491E94 00000304 
004930BC 0000023C 
004A1170 000000F4 
00491E94 00000304 
004930BC 0000023C 
004A1170 000000F4 
00491E94 00000304 
004930BC 0000023C 
004A1170 000000F4 
00491E94 00000304 
004930BC 0000023C 
004A1170 000000F4 
00491E94 00000304 
004930BC 0000023C 
004A1170 000000F4 
00491E94 00000304 
004930BC 0000023C 
004A1170 000000F4 
00491E94 00000304 
004930BC 0000023C 
004A1170 000000F4 
00491E94 00000304 
004930BC 0000023C 
004A1170 000000F4 
00491E94 00000304 
004930BC 0000023C 
004A1170 000000F4 
00491E94 00000304 
004930BC 0000023C 
004A1170 000000F4 
00491E94 00000304 
004930BC 0000023C 
004A1170 000000F4 
00491E94 00000304 
004930BC 0000023C 
004A1170 000000F4 
00491E94 00000304 
004930BC 0000023C 
004A1170 000000F4 
00491E94 00000304 
004930BC 0000023C 
004A1170 000000F4 
00491E94 00000304 
004930BC 0000023C 
004A1170 000000F4 
00491E94 00000304 
004930BC 0000023C 
004A1170 000000F4 
00491E94 00000304 
004930BC 0000023C 
004A1170 000000F4 
00491E94 00000304 
004930BC 0000023C 
004A1170 000000F4 
00491E94 00000304 
004930BC 0000023C 
004A1170 000000F4 
00491E94 00000304 
004930BC 0000023C 
004A1170 000000F4 
00491E94 00000304 
004930BC 0000023C 
004A1170 000000F4 
00491E94 00000304 
004930BC 0000023C 
004A1170 000000F4 
00491E94 00000304 
004930BC 0000023C 
004A1170 000000F4 
00491E94 00000304 
004930BC 0000023C 
004A1170 000000F4 
00491E94 00000304 
004930BC 0000023C 
004A1170 000000F4 
00491E94 00000304 
004930BC 0000023C 
004A1170 000000F4 
00491E94 00000304 
004930BC 0000023C 
004A1170 000000F4 
00491E94 00000304 
004930BC 0000023C 
004A1170 000000F4 
00491E94 00000304 
004930BC 0000023C 
004A1170 000000F4 
00491E94 00000304 
004930BC 0000023C 
004A1170 000000F4 
00491E94 00000304 
004930BC 0000023C 
004A1170 000000F4 
00491E94 00000304 
004930BC 0000023C 
004A1170 000000F4 
00491E94 00000304 
004930BC 0000023C 
004A1170 000000F4 
00491E94 00000304 
004930BC 0000023C 
004A1170 000000F4 
00491E94 00000304 
004930BC 0000023C 
004A1170 000000F4 
00491E94 00000304 
004930BC 0000023C 
004A1170 000000F4 
00491E94 00000304 
004930BC 0000023C 
004A1170 000000F4 
00491E94 00000304 
004930BC 0000023C 
004A1170 000000F4 
00491E94 00000304 
004930BC 0000023C 
004A1170 000000F4 
00491E94 00000304 
004930BC 0000023C 
004A1170 000000F4 
00491E94 00000304 
004930BC 0000023C 
004A1170 000000F4 
00491E94 00000304 
004930BC 0000023C 
004A1170 000000F4 
00491E94 00000304 
004930BC 0000023C 
004A1170 000000F4 
00491E94 00000304 
004930BC 0000023C 
004A1170 000000F4 
00491E94 00000304 
004930BC 0000023C 
004A1170 000000F4 
00491E94 00000304 
004930BC 0000023C 
004A1170 000000F4 
00491E94 00000304 
004930BC 0000023C 
004A1170 000000F4 
00491E94 00000304 
004930BC 0000023C 
004A1170 000000F4 
00491E94 00000304 
004930BC 0000023C 
004A1170 000000F4 
00491E94 00000304 
004930BC 0000023C 
004A1170 000000F4 
00491E94 00000304 
004930BC 0000023C 
004A1170 000000F4 
00491E94 00000304 
004930BC 0000023C 
004A1170 000000F4 
00491E94 00000304 
004930BC 0000023C 
004A1170 000000F4 
00491E94 00000304 
004930BC 0000023C 
004A1170 000000F4 
00491E94 00000304 
004930BC 0000023C 
004A1170 000000F4 
00491E94 00000304 
004930BC 0000023C 
004A1170 000000F4 
00491E94 00000304 
004930BC 0000023C 
004A1170 000000F4 
00491E94 00000304 
004930BC 0000023C 
004A1170 000000F4 
00491E94 00000304 
004930BC 0000023C 
004A1170 000000F4 
00491E94 00000304 
004930BC 0000023C 
004A1170 000000F4 
00491E94 00000304 
004930BC 0000023C 
004A1170 000000F4 
00491E94 00000304 
004930BC 0000023C 
004A1170 000000F4 
00491E94 00000304 
004930BC 0000023C 
004A1170 000000F4 
00491E94 00000304 
004930BC 0000023C 
004A1170 000000F4 
00491E94 00000304 
004930BC 0000023C 
004A1170 000000F4 
00491E94 00000304 
004930BC 0000023C 
004A1170 000000F4 
00491E94 00000304 
004930BC 0000023C 
004A1170 000000F4 
00491E94 00000304 
004930BC 0000023C 
004A1170 000000F4 
00491E94 00000304 
004930BC 0000023C 
004A1170 000000F4 
00491E94 00000304 
004930BC 0000023C 
004A1170 000000F4 
00491E94 00000304 
004930BC 0000023C 
004A1170 000000F4 
00491E94 00000304 
004930BC 0000023C 
004A1170 000000F4 
00491E94 00000304 
004930BC 0000023C 
004A1170 000000F4 
00491E94 00000304 
004930BC 0000023C 
004A1170 000000F4 
00491E94 00000304 
004930BC 0000023C 
004A1170 000000F4 
00491E94 00000304 
004930BC 0000023C 
004A1170 000000F4 
00491E94 00000304 
004930BC 0000023C 
004A1170 000000F4 
00491E94 00000304 
004930BC 0000023C 
004A1170 000000F4 
00491E94 00000304 
004930BC 0000023C 
004A1170 000000F4 
00491E94 00000304 
004930BC 0000023C 
004A1170 000000F4 
00491E94 00000304 
004930BC 0000023C 
004A1170 000000F4 
00491E94 00000304 
004930BC 0000023C 
004A1170 000000F4 
00491E94 00000304 
004930BC 0000023C 
004A1170 000000F4 
00491E94 00000304 
004930BC 0000023C 
004A1170 000000F4 
00491E94 00000304 
004930BC 0000023C 
004A1170 000000F4 
00491E94 00000304 
004930BC 0000023C 
004A1170 000000F4 
00491E94 00000304 
004930BC 0000023C 
004A1170 000000F4 
00491E94 00000304 
004930BC 0000023C 
004A1170 000000F4 
00491E94 00000304 
004930BC 0000023C 
004A1170 000000F4 
00491E94 00000304 
004930BC 0000023C 
004A1170 000000F4 
00491E94 00000304 
004930BC 0000023C 


DOS memory blocks
=================

 sel   base    length 
----------------------


Protected mode interrupt vectors
================================

No sel   offset 
----------------
02 01A7 00490E9D 
08 01A7 0044C0A0 
09 01A7 0044C122 
0F 01A7 0044C198 
23 01A7 0048B9B0 
24 01A7 0044B96C 


Protected mode exception vectors
================================

No sel   offset 
----------------


Real mode interrupt vectors
===========================

No seg offset
-------------
43 C000 0100 


Call-Backs
==========

  real        target
-----------------------
