CauseWay DOS Extender v4.04 No copyright. Public domain software.
No rights retained. 

Exception: 0E, Error code: 0004

EAX=00000000 EBX=004DBE48 ECX=000000AA EDX=004DBE48 ESI=F0001060 
EDI=00000000 EBP=00000000 ESP=004D3F20 EIP=0044C0DA EFL=00003200 

CS=01A7-FFBCB000 DS=01AF-FFBCB000 ES=01AF-FFBCB000 
FS=0000-xxxxxxxx GS=01B7-xxxxxxxx SS=01AF-FFBCB000 

CR0=00000000 CR2=00000000 CR3=00000000 TR=0000

Info flags=00008042 

Program Linear Load Address: 00435000

CS:EIP > 3B 06 0F 8D D0 01 00 00 8B 44 24 20 3B 46 04 0F 
         8D C3 01 00 00 3B 7B 10 0F 8D BA 01 00 00 3B 6B 
         18 0F 8D B1 01 00 00 8B 4C 24 1C 85 C9 0F 8C 1E 
         01 00 00 8B 54 24 20 85 D2 0F 8C 25 01 00 00 8B 
         44 24 1C 8B 16 03 44 24 2C 39 D0 7E 0A 89 D0 2B 
         44 24 1C 89 44 24 2C 8B 44 24 20 8B 4E 04 03 44 
         24 30 39 C8 7E 0A 89 C8 2B 44 24 20 89 44 24 30 
         8B 4B 0C 39 CF 7D 0C 29 CF 01 7C 24 2C 29 7C 24 
         1C 89 CF 8B 43 14 39 C5 7D 0C 29 C5 01 6C 24 30 
         29 6C 24 20 89 C5 8B 44 24 2C 8B 53 10 01 F8 39 
         D0 7E 08 89 D0 29 F8 89 44 24 2C 8B 44 24 30 8B 
         4B 18 01 E8 39 C8 7E 08 89 C8 29 E8 89 44 24 30 
         83 7C 24 2C 00 0F 8E 0D 01 00 00 83 7C 24 30 00 
         0F 8E 02 01 00 00 8B 56 1C 8B 43 1C 8B 12 3B 10 
         0F 85 8F 00 00 00 53 56 E8 5B 3E 00 00 83 C4 08 
         85 C0 0F 85 9D 00 00 00 53 E8 C9 3E 00 00 83 C4 
         

SS:ESP > 05 00 00 00 48 BE 4D 00 D1 3F 4C 00 D4 00 00 00 
         4D 6B 43 00 60 10 00 F0 48 BE 4D 00 00 00 00 00 
         00 00 00 00 00 00 00 00 00 00 00 00 40 01 00 00 
         C8 00 00 00 D4 00 00 00 47 57 43 00 02 00 00 00 
         A0 C2 4D 00 D1 3F 4C 00 02 00 00 00 55 57 43 00 
         48 BE 4D 00 28 00 00 00 50 00 00 00 0B 00 4A 00 
         00 00 4C 00 00 00 00 00 01 00 00 00 0C 00 00 00 
         18 C4 4D 00 92 FF FF FF D8 FF FF FF 0A 00 00 00 
         E8 CF 4D 00 00 00 00 00 00 00 00 00 C8 3F 4D 00 
         E4 A8 4A 00 D1 3F 4C 00 D0 3F 4D 00 B5 15 47 00 
         01 00 00 00 3C 40 4D 00 00 00 00 00 32 7C 44 00 
         00 00 00 00 00 00 00 00 00 00 00 00 00 00 00 00 
         00 00 00 00 00 00 00 00 00 00 00 00 00 00 00 00 
         00 00 00 00 00 00 00 00 00 00 00 00 00 00 00 00 
         00 40 4D 00 00 00 00 00 F4 0F 00 00 00 00 00 00 
         08 50 4D 00 28 40 4D 00 00 00 00 00 00 00 00 00 
         

SS:EBP > 60 10 00 F0 08 00 70 00 08 00 70 00 08 00 70 00 
         08 00 70 00 60 10 00 F0 60 10 00 F0 60 10 00 F0 
         A5 FE 00 F0 87 E9 00 F0 55 FF 00 F0 60 10 00 F0 
         60 10 00 F0 60 10 00 F0 80 10 00 F0 60 10 00 F0 
         00 13 00 F0 00 11 00 F0 20 11 00 F0 40 11 00 F0 
         A0 11 00 F0 C0 11 00 F0 E0 11 00 F0 20 12 00 F0 
         C0 12 00 F0 C0 12 00 F0 40 12 00 F0 35 0A A0 02 
         60 12 00 F0 A4 F0 00 F0 60 10 00 F0 00 05 00 C0 
         80 14 00 F0 A0 14 00 F0 C8 20 00 F0 2F 0A A0 02 
         32 0A A0 02 C0 14 00 F0 E0 14 00 F0 00 15 00 F0 
         20 15 00 F0 40 15 00 F0 C0 15 00 F0 60 10 00 F0 
         60 10 00 F0 60 10 00 F0 60 10 00 F0 EB 13 A0 02 
         60 10 00 F0 60 10 00 F0 60 10 00 F0 10 00 FF C7 
         60 10 00 F0 60 10 00 F0 60 10 00 F0 60 10 00 F0 
         60 10 00 F0 60 10 00 F0 60 10 00 F0 60 10 00 F0 
         60 10 00 F0 60 10 00 F0 60 10 00 F0 60 10 00 F0 
         


   Application resource tracking details   
===========================================


Selectors
=========

 sel   base     limit  type D mem count
----------------------------------------
018F 00430000 00004000 DATA 32 Y xxxx
019F 00430AEC 0000013B DATA 32 Y xxxx
01A7 00000000 FFFFFFFF CODE 32 N 0001
01AF 00000000 FFFFFFFF DATA 32 N 0002
01B7 00430C64 00000047 DATA 32 Y xxxx

Total selectors: 0005


Linear memory blocks
====================

 handle    base    length 
--------------------------
00435000 00435000 0009F000 
00430AEC 00430AEC 0000013C 
00430C30 00430C30 00000014 
00430C64 00430C64 00000048 

Total Linear memory: 0009F198 (000A3000) in 00000004 blocks


Linear memory locked
====================

  base    length 
-----------------
0B200049 0000010F 
7C7C0044 0000000B 
004A2D4A 00000004 
004A2D42 00000004 
004A2D46 00000004 
004A357E 00000004 
004A3582 00000004 
004A3586 00000004 
004A2D4E 00000004 
004A2D52 00000004 
004A2D56 00000004 
004A2D5A 00000004 
004A2D5E 00000004 
004A2D62 00000004 
004AB874 00000400 
004A358A 00000004 
004D5038 00002000 
004D7040 00002000 
004D9048 00002000 
004DD038 00002000 
004DF040 00002000 
004E1048 00002000 
004E5038 00002000 
004E7040 00002000 
004E9048 00002000 
004AC278 00000004 
004AC270 00000004 
004AC280 00000004 
004AC27C 00000004 
004AC274 00000004 
004AC284 00000004 
004AC1DC 00000090 
004AC1BC 00000020 
004AC26C 00000004 
004A36C2 00000004 
004A36CA 00000004 
004A5954 00000004 
B6400048 000000A0 
004A3698 00000004 
004A36B8 00000004 
004AC074 00000140 
004A36B4 00000004 
004AC1B8 00000004 
004A36AC 00000004 
004A36B0 00000004 
004A36A0 00000004 
004A36A4 00000004 
004AC1B4 00000004 
00441F27 0000000B 
00441DB3 000000C2 
0044203A 00000021 
0044205C 0000002C 
0044208D 00000024 
004420B2 0000007D 
004421BA 0000001A 
004421D5 FFFFFFFF 
004421E5 0000001F 
00442205 FFFFFFFF 
004422A0 00000011 
004422B2 FFFFFFFF 
004A6DF4 00000034 
004C22CC 00000004 
004C22D8 00000004 
004A6DB8 00000004 
004A6DBC 00000004 
004C22D0 00000004 
004C22D4 00000004 
004707B3 00000196 
00442CED FFFFFFFF 
004A98E4 00000004 
0043501D 0000000C 
004A27CC 00000004 
004A27D4 00000004 
004AB767 0000007F 
004AB6E8 0000007F 
004A27E0 00000004 
004A27E4 00000004 
004AB450 0000014C 
004AB59C 0000014C 
004A27D8 00000004 
004A27DC 00000004 
004A27E8 00000004 
004A27EC 00000004 
004A27F0 00000004 
004A27FC 00000004 
004A2800 00000004 
004A2804 00000004 
004A2808 00000004 
004A280C 00000004 
0043E53A 00000098 
0043E641 0000003B 
0043E488 0000001F 
004A8A38 00000080 
004A8AB8 00000080 
004A8B38 00000018 
004A8B50 0000000A 
004A8B5A 000000FE 
004A8C58 000000FE 
004A8D56 000000FE 
004A8E54 000000FE 
004C332A 000000FE 
004C3428 000000FE 
004C3526 000000FE 
004C3820 000000FE 
004C3624 000000FE 
004C3722 000000FE 
004C2A3C 000000FE 
004C2C38 000000FE 
004C2F32 000000FE 
004C2E34 000000FE 
004C3030 000000FE 
004C2B3A 000000FE 
004C322C 000000FE 
004C2D36 000000FE 
004C312E 000000FE 
004A8F52 00000004 
004A8F56 00000004 
004A8F5A 00000004 
004A8F5E 00000004 
004A8F62 00000004 
004A8F66 00000004 
004A8F6A 00000004 
004A8F6E 00000004 
004A8F72 00000004 
004A8F76 00000004 
004A8F7A 00000004 
004A8F7E 00000004 
004A8F82 00000004 
004A8F86 00000004 
004A8A30 00000004 
004A89FC 00000004 
004A8A00 00000004 
004A8A04 00000004 
004A8A08 00000004 
004A8A0C 00000004 
004A8A10 00000004 
004A8A14 00000004 
004A8A18 00000004 
004A8A1C 00000004 
004A8A20 00000004 
004A8A24 00000004 
004A8A28 00000004 
004A8A2C 00000004 
0047D34D 000003D2 
004A66E8 00000004 
004A66EC 00000004 
004A66F0 00000004 
0046C308 00000043 
0046C455 00000046 
00442CED FFFFFFFF 
004913D4 0000000C 
0044C0C2 000001F4 
004A118C 000000F4 
00491B24 00000304 
00492D4C 0000023C 
004D4C20 00000360 
004DB050 00000320 
004AD688 000000F4 
004A10B8 0000008C 
004A523C 00000004 
004A5240 00000004 
004B88AC 00000004 
004B88B0 00000004 
004A5244 00000004 
004A5248 00000004 
004A5258 00000004 
004A524C 00000004 
004A5250 00000004 
004A5254 00000004 
004B88B8 00000004 
004B88BC 00000004 
004B88A8 00000004 
004B88B4 00000004 
004A5260 00000004 
004B88A4 00000004 
004B889C 00000004 
004B8898 00000004 
004B8714 00000180 
004B0194 00000400 
004B0594 00008180 
004AF694 00000300 
004AF994 00000800 
004A5264 00000004 
004A5268 00000004 
004A526C 00000004 
004B88A0 00000004 
004B8894 00000004 
00453344 00000032 
0045339A 00000E06 
004534A6 00000CFA 
004535EB 0000008C 
00453764 000000B3 
00453908 0000005A 
00453998 00000037 
004539D0 00000055 
00453ABB 00000160 
00453C90 00000070 
00453D2D FFFFFFD3 
00453DFC 000000AF 
00453FB3 FFFFFEF8 
0045468B 000000E5 
0045478F 0000007F 
004544C0 000003B2 
00454873 0000000B 
004548A8 0000001E 
004548C7 00000029 
004A3A84 000000B8 
004A3B3C 00000060 
004A3B9C 00000004 
004A3BA0 00000004 
004A3BAC 00000004 
004A3BB0 00000004 
004A3BBC 00000004 
004A3BC0 00000004 
004AD77C 00001400 
004AEB7C 00000B00 
004A3BD4 00000004 
004A3BD8 00000004 
004A3BDC 00000004 
004A3BE0 00000004 
00444F7E 0000001F 
004467D6 0000001F 
0044685D 00000024 
004468D2 00000022 
00446B32 000000C1 
00446BFB 00000022 
00446C56 000000A3 
00446D2E 00000020 
00446D5E 0000001D 
00446D7C 0000000F 
00446D8C 00000041 
00446DCE 00000022 
00446DF1 00000011 
00446E17 00000015 
00446E71 00000018 
00446EE7 0000002E 
00446F44 00000083 
00446FE0 00000028 
00447012 00000022 
00447035 00000014 
0044707E 00000069 
0044710A 00000028 
0044713C 00000038 
00447175 0000002A 
004471D1 0000007E 
0044726B 0000002B 
004472A3 00000022 
004472DD 00000022 
00447317 00000022 
00447351 FFFFFFE8 
00447600 0000001F 
004A1380 000000B8 
004A1438 000000B8 
004A14F0 000000B8 
004A15A8 000000B8 
004A1660 000000B8 
004A1818 00000060 
004A3BE4 00000004 
004A3BF0 00000004 
004A3BF4 00000004 
004A3BF8 00000004 
004A1890 00000004 
004A1878 00000004 
004A1880 00000004 
004A1884 00000004 
004A1888 00000004 
004A188C 00000004 
004A1894 00000004 
004A18A0 00000004 
004A18A4 00000004 
004A18A8 00000004 
004A9954 00000008 
004A995C 00000008 
004A18B4 00000004 
004A18B8 00000004 
004A18AC 00000004 
004A18B0 00000004 
004A1880 00000004 
00438F15 0000008D 
00439115 0000012D 
00439FC5 0000001E 
0043A01D 00000035 
0043A05C 0000000F 
00438FDB 00000090 
00466921 00000023 
004A647C 00000080 
004666A7 0000003F 
004666FE 000000C3 
004667CA 00000015 
004667E0 0000005C 
004DB630 00000800 
004C10EC 00000B00 
004A6474 00000004 
004B90EC 00008000 
004C1BFC 00000004 
004C1BF4 00000004 
004C1BF8 00000004 
004C1BF0 00000004 
004C1BEC 00000004 
004626BE 00000022 
004626E1 00000005 
004626FF 00000005 
004626E7 00000005 
004626ED 00000005 
004626F3 00000005 
004626F9 00000005 
00462722 00000028 
00462B8D 0000008D 
00462CBA FFFFFF60 
00462EBA FFFFFD60 
004630BD FFFFFB5D 
004632E4 FFFFF936 
00463513 FFFFF707 
00463731 FFFFF4E9 
0046395D FFFFF2BD 
00463B9E FFFFF07C 
00463DE8 FFFFEE32 
00463FF6 FFFFEC24 
0046421E FFFFE9FC 
0046445F FFFFE7BB 
004646AD 00000478 
00464B26 000005BB 
004650E2 00000481 
00465564 000005F1 
00462929 00000072 
004629EE 000000C3 
00462AF4 00000060 
00465B56 00000274 
00465E75 00000090 
00465F06 00000013 
00465F1A 00000024 
00465F49 0000000D 
00465F57 0000001B 
00465F73 00000027 
00465F9B 00000020 
00465FCA 0000000E 
00465FD9 0000001B 
00465FF5 00000059 
00466056 0000000D 
00466064 0000000E 
00465F57 0000011B 
00466073 00000059 
004660D4 0000000D 
004660E2 0000000E 
00465FD9 00000117 
004660F1 00000059 
00466152 0000000D 
0046615F 00000000 
0046615F 00000000 
0046615F 00000000 
00442CED FFFFFFFF 
004A19E8 00000060 
004A1A48 00000060 
004A1AA8 00000060 
004A1B08 00000700 
004A2208 00000292 
004A249A 00000004 
004A24AA 00000048 
004A24F2 00000034 
004A2526 00000200 
004A2726 00000014 
004A273A 00000014 
004A274E 00000014 
004A9A30 00000014 
004A9A1C 00000014 
004A9A08 00000014 
004A99F4 00000014 
004A9A44 00000014 
004A9A8E 00000001 
004A249E 00000004 
004A9A7C 00000012 
004A9A6A 00000012 
004A9A58 00000012 
004A99AC 00000048 
004A9964 00000048 
004A24A2 00000004 
004A24A6 00000004 
0043A42E 0000004C 
0043A481 000001C4 
0043A646 000000A0 
0043AB7C 00000033 
0043ACD3 0000002A 
0043AD05 0000005E 
0043AD87 000000A7 
0043AE3F 000000B8 
004A118C 000000F4 
00491B24 00000304 
00492D4C 0000023C 
004DC278 00000024 
00505038 00010C4A 
004A118C 000000F4 
00491B24 00000304 
00492D4C 0000023C 
004A118C 000000F4 
00491B24 00000304 
00492D4C 0000023C 
004A118C 000000F4 
00491B24 00000304 
00492D4C 0000023C 
004A118C 000000F4 
00491B24 00000304 
00492D4C 0000023C 
004A118C 000000F4 
00491B24 00000304 
00492D4C 0000023C 
004A118C 000000F4 
00491B24 00000304 
00492D4C 0000023C 
004A118C 000000F4 
00491B24 00000304 
00492D4C 0000023C 
004A118C 000000F4 
00491B24 00000304 
00492D4C 0000023C 
004A118C 000000F4 
00491B24 00000304 
00492D4C 0000023C 
004A118C 000000F4 
00491B24 00000304 
00492D4C 0000023C 
004A118C 000000F4 
00491B24 00000304 
00492D4C 0000023C 
004A118C 000000F4 
00491B24 00000304 
00492D4C 0000023C 
004A118C 000000F4 
00491B24 00000304 
00492D4C 0000023C 
004A118C 000000F4 
00491B24 00000304 
00492D4C 0000023C 
004A118C 000000F4 
00491B24 00000304 
00492D4C 0000023C 
004A118C 000000F4 
00491B24 00000304 
00492D4C 0000023C 
004A118C 000000F4 
00491B24 00000304 
00492D4C 0000023C 
004A118C 000000F4 
00491B24 00000304 
00492D4C 0000023C 
004A118C 000000F4 
00491B24 00000304 
00492D4C 0000023C 
004A118C 000000F4 
00491B24 00000304 
00492D4C 0000023C 
004A118C 000000F4 
00491B24 00000304 
00492D4C 0000023C 
004A118C 000000F4 
00491B24 00000304 
00492D4C 0000023C 
004A118C 000000F4 
00491B24 00000304 
00492D4C 0000023C 
004A118C 000000F4 
00491B24 00000304 
00492D4C 0000023C 
004A118C 000000F4 
00491B24 00000304 
00492D4C 0000023C 
004A118C 000000F4 
00491B24 00000304 
00492D4C 0000023C 
004A118C 000000F4 
00491B24 00000304 
00492D4C 0000023C 
004A118C 000000F4 
00491B24 00000304 
00492D4C 0000023C 
004A118C 000000F4 
00491B24 00000304 
00492D4C 0000023C 
004A118C 000000F4 
00491B24 00000304 
00492D4C 0000023C 
004A118C 000000F4 
00491B24 00000304 
00492D4C 0000023C 
004A118C 000000F4 
00491B24 00000304 
00492D4C 0000023C 
004A118C 000000F4 
00491B24 00000304 
00492D4C 0000023C 
004A118C 000000F4 
00491B24 00000304 
00492D4C 0000023C 
004A118C 000000F4 
00491B24 00000304 
00492D4C 0000023C 
004A118C 000000F4 
00491B24 00000304 
00492D4C 0000023C 
004A118C 000000F4 
00491B24 00000304 
00492D4C 0000023C 
004A118C 000000F4 
00491B24 00000304 
00492D4C 0000023C 
004A118C 000000F4 
00491B24 00000304 
00492D4C 0000023C 
004A118C 000000F4 
00491B24 00000304 
00492D4C 0000023C 
004A118C 000000F4 
00491B24 00000304 
00492D4C 0000023C 
004A118C 000000F4 
00491B24 00000304 
00492D4C 0000023C 
004A118C 000000F4 
00491B24 00000304 
00492D4C 0000023C 
004A118C 000000F4 
00491B24 00000304 
00492D4C 0000023C 
004A118C 000000F4 
00491B24 00000304 
00492D4C 0000023C 
004A118C 000000F4 
00491B24 00000304 
00492D4C 0000023C 
004A118C 000000F4 
00491B24 00000304 
00492D4C 0000023C 
004A118C 000000F4 
00491B24 00000304 
00492D4C 0000023C 
004A118C 000000F4 
00491B24 00000304 
00492D4C 0000023C 
004A118C 000000F4 
00491B24 00000304 
00492D4C 0000023C 
004A118C 000000F4 
00491B24 00000304 
00492D4C 0000023C 
004A118C 000000F4 
00491B24 00000304 
00492D4C 0000023C 
004A118C 000000F4 
00491B24 00000304 
00492D4C 0000023C 
004A118C 000000F4 
00491B24 00000304 
00492D4C 0000023C 
004A118C 000000F4 
00491B24 00000304 
00492D4C 0000023C 
004A118C 000000F4 
00491B24 00000304 
00492D4C 0000023C 
004A118C 000000F4 
00491B24 00000304 
00492D4C 0000023C 
004A118C 000000F4 
00491B24 00000304 
00492D4C 0000023C 
004A118C 000000F4 
00491B24 00000304 
00492D4C 0000023C 
004A118C 000000F4 
00491B24 00000304 
00492D4C 0000023C 
004A118C 000000F4 
00491B24 00000304 
00492D4C 0000023C 
004A118C 000000F4 
00491B24 00000304 
00492D4C 0000023C 
004A118C 000000F4 
00491B24 00000304 
00492D4C 0000023C 
004A118C 000000F4 
00491B24 00000304 
00492D4C 0000023C 
004A118C 000000F4 
00491B24 00000304 
00492D4C 0000023C 
004A118C 000000F4 
00491B24 00000304 
00492D4C 0000023C 
004A118C 000000F4 
00491B24 00000304 
00492D4C 0000023C 
004A118C 000000F4 
00491B24 00000304 
00492D4C 0000023C 
004A118C 000000F4 
00491B24 00000304 
00492D4C 0000023C 
004A118C 000000F4 
00491B24 00000304 
00492D4C 0000023C 
004A118C 000000F4 
00491B24 00000304 
00492D4C 0000023C 
004A118C 000000F4 
00491B24 00000304 
00492D4C 0000023C 
004A118C 000000F4 
00491B24 00000304 
00492D4C 0000023C 
004A118C 000000F4 
00491B24 00000304 
00492D4C 0000023C 
004A118C 000000F4 
00491B24 00000304 
00492D4C 0000023C 
004A118C 000000F4 
00491B24 00000304 
00492D4C 0000023C 
004A118C 000000F4 
00491B24 00000304 
00492D4C 0000023C 
004A118C 000000F4 
00491B24 00000304 
00492D4C 0000023C 
004A118C 000000F4 
00491B24 00000304 
00492D4C 0000023C 
004A118C 000000F4 
00491B24 00000304 
00492D4C 0000023C 
004A118C 000000F4 
00491B24 00000304 
00492D4C 0000023C 
004A118C 000000F4 
00491B24 00000304 
00492D4C 0000023C 
004A118C 000000F4 
00491B24 00000304 
00492D4C 0000023C 
004A118C 000000F4 
00491B24 00000304 
00492D4C 0000023C 
004A118C 000000F4 
00491B24 00000304 
00492D4C 0000023C 
004A118C 000000F4 
00491B24 00000304 
00492D4C 0000023C 
004A118C 000000F4 
00491B24 00000304 
00492D4C 0000023C 
004A118C 000000F4 
00491B24 00000304 
00492D4C 0000023C 
004A118C 000000F4 
00491B24 00000304 
00492D4C 0000023C 
004A118C 000000F4 
00491B24 00000304 
00492D4C 0000023C 
004A118C 000000F4 
00491B24 00000304 
00492D4C 0000023C 
004A118C 000000F4 
00491B24 00000304 
00492D4C 0000023C 
004A118C 000000F4 
00491B24 00000304 
00492D4C 0000023C 
004A118C 000000F4 
00491B24 00000304 
00492D4C 0000023C 
004A118C 000000F4 
00491B24 00000304 
00492D4C 0000023C 
004A118C 000000F4 
00491B24 00000304 
00492D4C 0000023C 
004A118C 000000F4 
00491B24 00000304 
00492D4C 0000023C 
004A118C 000000F4 
00491B24 00000304 
00492D4C 0000023C 
004A118C 000000F4 
00491B24 00000304 
00492D4C 0000023C 
004A118C 000000F4 
00491B24 00000304 
00492D4C 0000023C 
004A118C 000000F4 
00491B24 00000304 
00492D4C 0000023C 
004A118C 000000F4 
00491B24 00000304 
00492D4C 0000023C 
004A118C 000000F4 
00491B24 00000304 
00492D4C 0000023C 
004A118C 000000F4 
00491B24 00000304 
00492D4C 0000023C 
004A118C 000000F4 
00491B24 00000304 
00492D4C 0000023C 
004A118C 000000F4 
00491B24 00000304 
00492D4C 0000023C 
004A118C 000000F4 
00491B24 00000304 
00492D4C 0000023C 
004A118C 000000F4 
00491B24 00000304 
00492D4C 0000023C 
004A118C 000000F4 
00491B24 00000304 
00492D4C 0000023C 
004A118C 000000F4 
00491B24 00000304 
00492D4C 0000023C 
004A118C 000000F4 
00491B24 00000304 
00492D4C 0000023C 
004A118C 000000F4 
00491B24 00000304 
00492D4C 0000023C 
004A118C 000000F4 
00491B24 00000304 
00492D4C 0000023C 
004A118C 000000F4 
00491B24 00000304 
00492D4C 0000023C 
004A118C 000000F4 
00491B24 00000304 
00492D4C 0000023C 
004A118C 000000F4 
00491B24 00000304 
00492D4C 0000023C 
004A118C 000000F4 
00491B24 00000304 
00492D4C 0000023C 
004A118C 000000F4 
00491B24 00000304 
00492D4C 0000023C 
004A118C 000000F4 
00491B24 00000304 
00492D4C 0000023C 
004A118C 000000F4 
00491B24 00000304 
00492D4C 0000023C 
004A118C 000000F4 
00491B24 00000304 
00492D4C 0000023C 
004A118C 000000F4 
00491B24 00000304 
00492D4C 0000023C 
004A118C 000000F4 
00491B24 00000304 
00492D4C 0000023C 
004A118C 000000F4 
00491B24 00000304 
00492D4C 0000023C 
004A118C 000000F4 
00491B24 00000304 
00492D4C 0000023C 
004A118C 000000F4 
00491B24 00000304 
00492D4C 0000023C 
004A118C 000000F4 
00491B24 00000304 
00492D4C 0000023C 
004A118C 000000F4 
00491B24 00000304 
00492D4C 0000023C 
004A118C 000000F4 
00491B24 00000304 
00492D4C 0000023C 
004A118C 000000F4 
00491B24 00000304 
00492D4C 0000023C 
004A118C 000000F4 
00491B24 00000304 
00492D4C 0000023C 
004A118C 000000F4 
00491B24 00000304 
00492D4C 0000023C 
004A118C 000000F4 
00491B24 00000304 
00492D4C 0000023C 
004A118C 000000F4 
00491B24 00000304 
00492D4C 0000023C 
004A118C 000000F4 
00491B24 00000304 
00492D4C 0000023C 
004A118C 000000F4 
00491B24 00000304 
00492D4C 0000023C 
004A118C 000000F4 
00491B24 00000304 
00492D4C 0000023C 
004A118C 000000F4 
00491B24 00000304 
00492D4C 0000023C 
004A118C 000000F4 
00491B24 00000304 
00492D4C 0000023C 
004A118C 000000F4 
00491B24 00000304 
00492D4C 0000023C 
004A118C 000000F4 
00491B24 00000304 
00492D4C 0000023C 
004A118C 000000F4 
00491B24 00000304 
00492D4C 0000023C 
004A118C 000000F4 
00491B24 00000304 
00492D4C 0000023C 
004A118C 000000F4 
00491B24 00000304 
00492D4C 0000023C 
004A118C 000000F4 
00491B24 00000304 
00492D4C 0000023C 
004A118C 000000F4 
00491B24 00000304 
00492D4C 0000023C 
004A118C 000000F4 
00491B24 00000304 
00492D4C 0000023C 
004A118C 000000F4 
00491B24 00000304 
00492D4C 0000023C 
004A118C 000000F4 
00491B24 00000304 
00492D4C 0000023C 
004A118C 000000F4 
00491B24 00000304 
00492D4C 0000023C 
004A118C 000000F4 
00491B24 00000304 
00492D4C 0000023C 
004A118C 000000F4 
00491B24 00000304 
00492D4C 0000023C 
004A118C 000000F4 
00491B24 00000304 
00492D4C 0000023C 
004A118C 000000F4 
00491B24 00000304 
00492D4C 0000023C 
004A118C 000000F4 
00491B24 00000304 
00492D4C 0000023C 
004A118C 000000F4 
00491B24 00000304 
00492D4C 0000023C 
004A118C 000000F4 
00491B24 00000304 
00492D4C 0000023C 
004A118C 000000F4 
00491B24 00000304 
00492D4C 0000023C 
004A118C 000000F4 
00491B24 00000304 
00492D4C 0000023C 
004A118C 000000F4 
00491B24 00000304 
00492D4C 0000023C 
004A118C 000000F4 
00491B24 00000304 
00492D4C 0000023C 
004A118C 000000F4 
00491B24 00000304 
00492D4C 0000023C 
004A118C 000000F4 
00491B24 00000304 
00492D4C 0000023C 
004A118C 000000F4 
00491B24 00000304 
00492D4C 0000023C 
004A118C 000000F4 
00491B24 00000304 
00492D4C 0000023C 
004A118C 000000F4 
00491B24 00000304 
00492D4C 0000023C 
004A118C 000000F4 
00491B24 00000304 
00492D4C 0000023C 
004A118C 000000F4 
00491B24 00000304 
00492D4C 0000023C 
004A118C 000000F4 
00491B24 00000304 
00492D4C 0000023C 
004A118C 000000F4 
00491B24 00000304 
00492D4C 0000023C 
004A118C 000000F4 
00491B24 00000304 
00492D4C 0000023C 
004A118C 000000F4 
00491B24 00000304 
00492D4C 0000023C 
004A118C 000000F4 
00491B24 00000304 
00492D4C 0000023C 
004A118C 000000F4 
00491B24 00000304 
00492D4C 0000023C 
004A118C 000000F4 
00491B24 00000304 
00492D4C 0000023C 
004A118C 000000F4 
00491B24 00000304 
00492D4C 0000023C 
004A118C 000000F4 
00491B24 00000304 
00492D4C 0000023C 
004A118C 000000F4 
00491B24 00000304 
00492D4C 0000023C 
004A118C 000000F4 
00491B24 00000304 
00492D4C 0000023C 
004A118C 000000F4 
00491B24 00000304 
00492D4C 0000023C 
004A118C 000000F4 
00491B24 00000304 
00492D4C 0000023C 
004A118C 000000F4 
00491B24 00000304 
00492D4C 0000023C 
004A118C 000000F4 
00491B24 00000304 
00492D4C 0000023C 
004A118C 000000F4 
00491B24 00000304 
00492D4C 0000023C 
004A118C 000000F4 
00491B24 00000304 
00492D4C 0000023C 
004A118C 000000F4 
00491B24 00000304 
00492D4C 0000023C 
004A118C 000000F4 
00491B24 00000304 
00492D4C 0000023C 
004A118C 000000F4 
00491B24 00000304 
00492D4C 0000023C 
004A118C 000000F4 
00491B24 00000304 
00492D4C 0000023C 
004A118C 000000F4 
00491B24 00000304 
00492D4C 0000023C 
004A118C 000000F4 
00491B24 00000304 
00492D4C 0000023C 
004A118C 000000F4 
00491B24 00000304 
00492D4C 0000023C 
004A118C 000000F4 
00491B24 00000304 
00492D4C 0000023C 
004A118C 000000F4 
00491B24 00000304 
00492D4C 0000023C 
004A118C 000000F4 
00491B24 00000304 
00492D4C 0000023C 
004A118C 000000F4 
00491B24 00000304 
00492D4C 0000023C 
004A118C 000000F4 
00491B24 00000304 
00492D4C 0000023C 
004A118C 000000F4 
00491B24 00000304 
00492D4C 0000023C 
004A118C 000000F4 
00491B24 00000304 
00492D4C 0000023C 
004A118C 000000F4 
00491B24 00000304 
00492D4C 0000023C 
004A118C 000000F4 
00491B24 00000304 
00492D4C 0000023C 
004A118C 000000F4 
00491B24 00000304 
00492D4C 0000023C 


DOS memory blocks
=================

 sel   base    length 
----------------------


Protected mode interrupt vectors
================================

No sel   offset 
----------------
02 01A7 00490B2D 
08 01A7 00442CED 
09 01A7 00442D6F 
0F 01A7 00442DE5 
23 01A7 0048B640 
24 01A7 004425B9 


Protected mode exception vectors
================================

No sel   offset 
----------------


Real mode interrupt vectors
===========================

No seg offset
-------------
43 C000 0100 


Call-Backs
==========

  real        target
-----------------------
